* NGSPICE file created from arbiter.ext - technology: sky130A

* Black-box entry subcircuit for sky130_fd_sc_hd__tapvpwrvgnd_1 abstract view
.subckt sky130_fd_sc_hd__tapvpwrvgnd_1 VGND VPWR
.ends

* Black-box entry subcircuit for sky130_fd_sc_hd__decap_3 abstract view
.subckt sky130_fd_sc_hd__decap_3 VGND VNB VPB VPWR
.ends

* Black-box entry subcircuit for sky130_fd_sc_hd__decap_4 abstract view
.subckt sky130_fd_sc_hd__decap_4 VGND VNB VPB VPWR
.ends

* Black-box entry subcircuit for sky130_fd_sc_hd__decap_6 abstract view
.subckt sky130_fd_sc_hd__decap_6 VGND VNB VPB VPWR
.ends

* Black-box entry subcircuit for sky130_fd_sc_hd__decap_12 abstract view
.subckt sky130_fd_sc_hd__decap_12 VGND VNB VPB VPWR
.ends

* Black-box entry subcircuit for sky130_fd_sc_hd__diode_2 abstract view
.subckt sky130_fd_sc_hd__diode_2 DIODE VGND VNB VPB VPWR
.ends

* Black-box entry subcircuit for sky130_fd_sc_hd__and2_1 abstract view
.subckt sky130_fd_sc_hd__and2_1 A B VGND VNB VPB VPWR X
.ends

* Black-box entry subcircuit for sky130_fd_sc_hd__fill_2 abstract view
.subckt sky130_fd_sc_hd__fill_2 VGND VNB VPB VPWR
.ends

* Black-box entry subcircuit for sky130_fd_sc_hd__clkbuf_1 abstract view
.subckt sky130_fd_sc_hd__clkbuf_1 A VGND VNB VPB VPWR X
.ends

* Black-box entry subcircuit for sky130_fd_sc_hd__o211ai_4 abstract view
.subckt sky130_fd_sc_hd__o211ai_4 A1 A2 B1 C1 VGND VNB VPB VPWR Y
.ends

* Black-box entry subcircuit for sky130_fd_sc_hd__decap_8 abstract view
.subckt sky130_fd_sc_hd__decap_8 VGND VNB VPB VPWR
.ends

* Black-box entry subcircuit for sky130_fd_sc_hd__buf_2 abstract view
.subckt sky130_fd_sc_hd__buf_2 A VGND VNB VPB VPWR X
.ends

* Black-box entry subcircuit for sky130_fd_sc_hd__fill_1 abstract view
.subckt sky130_fd_sc_hd__fill_1 VGND VNB VPB VPWR
.ends

* Black-box entry subcircuit for sky130_fd_sc_hd__a21oi_1 abstract view
.subckt sky130_fd_sc_hd__a21oi_1 A1 A2 B1 VGND VNB VPB VPWR Y
.ends

* Black-box entry subcircuit for sky130_fd_sc_hd__nor2_2 abstract view
.subckt sky130_fd_sc_hd__nor2_2 A B VGND VNB VPB VPWR Y
.ends

* Black-box entry subcircuit for sky130_fd_sc_hd__clkbuf_2 abstract view
.subckt sky130_fd_sc_hd__clkbuf_2 A VGND VNB VPB VPWR X
.ends

* Black-box entry subcircuit for sky130_fd_sc_hd__buf_4 abstract view
.subckt sky130_fd_sc_hd__buf_4 A VGND VNB VPB VPWR X
.ends

* Black-box entry subcircuit for sky130_fd_sc_hd__dlymetal6s2s_1 abstract view
.subckt sky130_fd_sc_hd__dlymetal6s2s_1 A VGND VNB VPB VPWR X
.ends

* Black-box entry subcircuit for sky130_fd_sc_hd__or2_1 abstract view
.subckt sky130_fd_sc_hd__or2_1 A B VGND VNB VPB VPWR X
.ends

* Black-box entry subcircuit for sky130_fd_sc_hd__clkbuf_4 abstract view
.subckt sky130_fd_sc_hd__clkbuf_4 A VGND VNB VPB VPWR X
.ends

* Black-box entry subcircuit for sky130_fd_sc_hd__inv_2 abstract view
.subckt sky130_fd_sc_hd__inv_2 A VGND VNB VPB VPWR Y
.ends

* Black-box entry subcircuit for sky130_fd_sc_hd__and4b_1 abstract view
.subckt sky130_fd_sc_hd__and4b_1 A_N B C D VGND VNB VPB VPWR X
.ends

* Black-box entry subcircuit for sky130_fd_sc_hd__nor2_1 abstract view
.subckt sky130_fd_sc_hd__nor2_1 A B VGND VNB VPB VPWR Y
.ends

* Black-box entry subcircuit for sky130_fd_sc_hd__a22o_1 abstract view
.subckt sky130_fd_sc_hd__a22o_1 A1 A2 B1 B2 VGND VNB VPB VPWR X
.ends

* Black-box entry subcircuit for sky130_fd_sc_hd__dfxtp_1 abstract view
.subckt sky130_fd_sc_hd__dfxtp_1 CLK D VGND VNB VPB VPWR Q
.ends

* Black-box entry subcircuit for sky130_fd_sc_hd__a311o_1 abstract view
.subckt sky130_fd_sc_hd__a311o_1 A1 A2 A3 B1 C1 VGND VNB VPB VPWR X
.ends

* Black-box entry subcircuit for sky130_fd_sc_hd__a22o_2 abstract view
.subckt sky130_fd_sc_hd__a22o_2 A1 A2 B1 B2 VGND VNB VPB VPWR X
.ends

* Black-box entry subcircuit for sky130_fd_sc_hd__nand2_1 abstract view
.subckt sky130_fd_sc_hd__nand2_1 A B VGND VNB VPB VPWR Y
.ends

* Black-box entry subcircuit for sky130_fd_sc_hd__and4bb_1 abstract view
.subckt sky130_fd_sc_hd__and4bb_1 A_N B_N C D VGND VNB VPB VPWR X
.ends

* Black-box entry subcircuit for sky130_fd_sc_hd__or2_2 abstract view
.subckt sky130_fd_sc_hd__or2_2 A B VGND VNB VPB VPWR X
.ends

.subckt arbiter clk data_from_mem[0] data_from_mem[100] data_from_mem[101] data_from_mem[102]
+ data_from_mem[103] data_from_mem[104] data_from_mem[105] data_from_mem[106] data_from_mem[107]
+ data_from_mem[108] data_from_mem[109] data_from_mem[10] data_from_mem[110] data_from_mem[111]
+ data_from_mem[112] data_from_mem[113] data_from_mem[114] data_from_mem[115] data_from_mem[116]
+ data_from_mem[117] data_from_mem[118] data_from_mem[119] data_from_mem[11] data_from_mem[120]
+ data_from_mem[121] data_from_mem[122] data_from_mem[123] data_from_mem[124] data_from_mem[125]
+ data_from_mem[126] data_from_mem[127] data_from_mem[12] data_from_mem[13] data_from_mem[14]
+ data_from_mem[15] data_from_mem[16] data_from_mem[17] data_from_mem[18] data_from_mem[19]
+ data_from_mem[1] data_from_mem[20] data_from_mem[21] data_from_mem[22] data_from_mem[23]
+ data_from_mem[24] data_from_mem[25] data_from_mem[26] data_from_mem[27] data_from_mem[28]
+ data_from_mem[29] data_from_mem[2] data_from_mem[30] data_from_mem[31] data_from_mem[32]
+ data_from_mem[33] data_from_mem[34] data_from_mem[35] data_from_mem[36] data_from_mem[37]
+ data_from_mem[38] data_from_mem[39] data_from_mem[3] data_from_mem[40] data_from_mem[41]
+ data_from_mem[42] data_from_mem[43] data_from_mem[44] data_from_mem[45] data_from_mem[46]
+ data_from_mem[47] data_from_mem[48] data_from_mem[49] data_from_mem[4] data_from_mem[50]
+ data_from_mem[51] data_from_mem[52] data_from_mem[53] data_from_mem[54] data_from_mem[55]
+ data_from_mem[56] data_from_mem[57] data_from_mem[58] data_from_mem[59] data_from_mem[5]
+ data_from_mem[60] data_from_mem[61] data_from_mem[62] data_from_mem[63] data_from_mem[64]
+ data_from_mem[65] data_from_mem[66] data_from_mem[67] data_from_mem[68] data_from_mem[69]
+ data_from_mem[6] data_from_mem[70] data_from_mem[71] data_from_mem[72] data_from_mem[73]
+ data_from_mem[74] data_from_mem[75] data_from_mem[76] data_from_mem[77] data_from_mem[78]
+ data_from_mem[79] data_from_mem[7] data_from_mem[80] data_from_mem[81] data_from_mem[82]
+ data_from_mem[83] data_from_mem[84] data_from_mem[85] data_from_mem[86] data_from_mem[87]
+ data_from_mem[88] data_from_mem[89] data_from_mem[8] data_from_mem[90] data_from_mem[91]
+ data_from_mem[92] data_from_mem[93] data_from_mem[94] data_from_mem[95] data_from_mem[96]
+ data_from_mem[97] data_from_mem[98] data_from_mem[99] data_from_mem[9] dcache_re
+ dcache_request dcache_to_mem_data_in[0] dcache_to_mem_data_in[100] dcache_to_mem_data_in[101]
+ dcache_to_mem_data_in[102] dcache_to_mem_data_in[103] dcache_to_mem_data_in[104]
+ dcache_to_mem_data_in[105] dcache_to_mem_data_in[106] dcache_to_mem_data_in[107]
+ dcache_to_mem_data_in[108] dcache_to_mem_data_in[109] dcache_to_mem_data_in[10]
+ dcache_to_mem_data_in[110] dcache_to_mem_data_in[111] dcache_to_mem_data_in[112]
+ dcache_to_mem_data_in[113] dcache_to_mem_data_in[114] dcache_to_mem_data_in[115]
+ dcache_to_mem_data_in[116] dcache_to_mem_data_in[117] dcache_to_mem_data_in[118]
+ dcache_to_mem_data_in[119] dcache_to_mem_data_in[11] dcache_to_mem_data_in[120]
+ dcache_to_mem_data_in[121] dcache_to_mem_data_in[122] dcache_to_mem_data_in[123]
+ dcache_to_mem_data_in[124] dcache_to_mem_data_in[125] dcache_to_mem_data_in[126]
+ dcache_to_mem_data_in[127] dcache_to_mem_data_in[12] dcache_to_mem_data_in[13] dcache_to_mem_data_in[14]
+ dcache_to_mem_data_in[15] dcache_to_mem_data_in[16] dcache_to_mem_data_in[17] dcache_to_mem_data_in[18]
+ dcache_to_mem_data_in[19] dcache_to_mem_data_in[1] dcache_to_mem_data_in[20] dcache_to_mem_data_in[21]
+ dcache_to_mem_data_in[22] dcache_to_mem_data_in[23] dcache_to_mem_data_in[24] dcache_to_mem_data_in[25]
+ dcache_to_mem_data_in[26] dcache_to_mem_data_in[27] dcache_to_mem_data_in[28] dcache_to_mem_data_in[29]
+ dcache_to_mem_data_in[2] dcache_to_mem_data_in[30] dcache_to_mem_data_in[31] dcache_to_mem_data_in[32]
+ dcache_to_mem_data_in[33] dcache_to_mem_data_in[34] dcache_to_mem_data_in[35] dcache_to_mem_data_in[36]
+ dcache_to_mem_data_in[37] dcache_to_mem_data_in[38] dcache_to_mem_data_in[39] dcache_to_mem_data_in[3]
+ dcache_to_mem_data_in[40] dcache_to_mem_data_in[41] dcache_to_mem_data_in[42] dcache_to_mem_data_in[43]
+ dcache_to_mem_data_in[44] dcache_to_mem_data_in[45] dcache_to_mem_data_in[46] dcache_to_mem_data_in[47]
+ dcache_to_mem_data_in[48] dcache_to_mem_data_in[49] dcache_to_mem_data_in[4] dcache_to_mem_data_in[50]
+ dcache_to_mem_data_in[51] dcache_to_mem_data_in[52] dcache_to_mem_data_in[53] dcache_to_mem_data_in[54]
+ dcache_to_mem_data_in[55] dcache_to_mem_data_in[56] dcache_to_mem_data_in[57] dcache_to_mem_data_in[58]
+ dcache_to_mem_data_in[59] dcache_to_mem_data_in[5] dcache_to_mem_data_in[60] dcache_to_mem_data_in[61]
+ dcache_to_mem_data_in[62] dcache_to_mem_data_in[63] dcache_to_mem_data_in[64] dcache_to_mem_data_in[65]
+ dcache_to_mem_data_in[66] dcache_to_mem_data_in[67] dcache_to_mem_data_in[68] dcache_to_mem_data_in[69]
+ dcache_to_mem_data_in[6] dcache_to_mem_data_in[70] dcache_to_mem_data_in[71] dcache_to_mem_data_in[72]
+ dcache_to_mem_data_in[73] dcache_to_mem_data_in[74] dcache_to_mem_data_in[75] dcache_to_mem_data_in[76]
+ dcache_to_mem_data_in[77] dcache_to_mem_data_in[78] dcache_to_mem_data_in[79] dcache_to_mem_data_in[7]
+ dcache_to_mem_data_in[80] dcache_to_mem_data_in[81] dcache_to_mem_data_in[82] dcache_to_mem_data_in[83]
+ dcache_to_mem_data_in[84] dcache_to_mem_data_in[85] dcache_to_mem_data_in[86] dcache_to_mem_data_in[87]
+ dcache_to_mem_data_in[88] dcache_to_mem_data_in[89] dcache_to_mem_data_in[8] dcache_to_mem_data_in[90]
+ dcache_to_mem_data_in[91] dcache_to_mem_data_in[92] dcache_to_mem_data_in[93] dcache_to_mem_data_in[94]
+ dcache_to_mem_data_in[95] dcache_to_mem_data_in[96] dcache_to_mem_data_in[97] dcache_to_mem_data_in[98]
+ dcache_to_mem_data_in[99] dcache_to_mem_data_in[9] dcache_to_mem_data_out[0] dcache_to_mem_data_out[100]
+ dcache_to_mem_data_out[101] dcache_to_mem_data_out[102] dcache_to_mem_data_out[103]
+ dcache_to_mem_data_out[104] dcache_to_mem_data_out[105] dcache_to_mem_data_out[106]
+ dcache_to_mem_data_out[107] dcache_to_mem_data_out[108] dcache_to_mem_data_out[109]
+ dcache_to_mem_data_out[10] dcache_to_mem_data_out[110] dcache_to_mem_data_out[111]
+ dcache_to_mem_data_out[112] dcache_to_mem_data_out[113] dcache_to_mem_data_out[114]
+ dcache_to_mem_data_out[115] dcache_to_mem_data_out[116] dcache_to_mem_data_out[117]
+ dcache_to_mem_data_out[118] dcache_to_mem_data_out[119] dcache_to_mem_data_out[11]
+ dcache_to_mem_data_out[120] dcache_to_mem_data_out[121] dcache_to_mem_data_out[122]
+ dcache_to_mem_data_out[123] dcache_to_mem_data_out[124] dcache_to_mem_data_out[125]
+ dcache_to_mem_data_out[126] dcache_to_mem_data_out[127] dcache_to_mem_data_out[12]
+ dcache_to_mem_data_out[13] dcache_to_mem_data_out[14] dcache_to_mem_data_out[15]
+ dcache_to_mem_data_out[16] dcache_to_mem_data_out[17] dcache_to_mem_data_out[18]
+ dcache_to_mem_data_out[19] dcache_to_mem_data_out[1] dcache_to_mem_data_out[20]
+ dcache_to_mem_data_out[21] dcache_to_mem_data_out[22] dcache_to_mem_data_out[23]
+ dcache_to_mem_data_out[24] dcache_to_mem_data_out[25] dcache_to_mem_data_out[26]
+ dcache_to_mem_data_out[27] dcache_to_mem_data_out[28] dcache_to_mem_data_out[29]
+ dcache_to_mem_data_out[2] dcache_to_mem_data_out[30] dcache_to_mem_data_out[31]
+ dcache_to_mem_data_out[32] dcache_to_mem_data_out[33] dcache_to_mem_data_out[34]
+ dcache_to_mem_data_out[35] dcache_to_mem_data_out[36] dcache_to_mem_data_out[37]
+ dcache_to_mem_data_out[38] dcache_to_mem_data_out[39] dcache_to_mem_data_out[3]
+ dcache_to_mem_data_out[40] dcache_to_mem_data_out[41] dcache_to_mem_data_out[42]
+ dcache_to_mem_data_out[43] dcache_to_mem_data_out[44] dcache_to_mem_data_out[45]
+ dcache_to_mem_data_out[46] dcache_to_mem_data_out[47] dcache_to_mem_data_out[48]
+ dcache_to_mem_data_out[49] dcache_to_mem_data_out[4] dcache_to_mem_data_out[50]
+ dcache_to_mem_data_out[51] dcache_to_mem_data_out[52] dcache_to_mem_data_out[53]
+ dcache_to_mem_data_out[54] dcache_to_mem_data_out[55] dcache_to_mem_data_out[56]
+ dcache_to_mem_data_out[57] dcache_to_mem_data_out[58] dcache_to_mem_data_out[59]
+ dcache_to_mem_data_out[5] dcache_to_mem_data_out[60] dcache_to_mem_data_out[61]
+ dcache_to_mem_data_out[62] dcache_to_mem_data_out[63] dcache_to_mem_data_out[64]
+ dcache_to_mem_data_out[65] dcache_to_mem_data_out[66] dcache_to_mem_data_out[67]
+ dcache_to_mem_data_out[68] dcache_to_mem_data_out[69] dcache_to_mem_data_out[6]
+ dcache_to_mem_data_out[70] dcache_to_mem_data_out[71] dcache_to_mem_data_out[72]
+ dcache_to_mem_data_out[73] dcache_to_mem_data_out[74] dcache_to_mem_data_out[75]
+ dcache_to_mem_data_out[76] dcache_to_mem_data_out[77] dcache_to_mem_data_out[78]
+ dcache_to_mem_data_out[79] dcache_to_mem_data_out[7] dcache_to_mem_data_out[80]
+ dcache_to_mem_data_out[81] dcache_to_mem_data_out[82] dcache_to_mem_data_out[83]
+ dcache_to_mem_data_out[84] dcache_to_mem_data_out[85] dcache_to_mem_data_out[86]
+ dcache_to_mem_data_out[87] dcache_to_mem_data_out[88] dcache_to_mem_data_out[89]
+ dcache_to_mem_data_out[8] dcache_to_mem_data_out[90] dcache_to_mem_data_out[91]
+ dcache_to_mem_data_out[92] dcache_to_mem_data_out[93] dcache_to_mem_data_out[94]
+ dcache_to_mem_data_out[95] dcache_to_mem_data_out[96] dcache_to_mem_data_out[97]
+ dcache_to_mem_data_out[98] dcache_to_mem_data_out[99] dcache_to_mem_data_out[9]
+ dcache_we dtlb_physical_addr_in[0] dtlb_physical_addr_in[10] dtlb_physical_addr_in[11]
+ dtlb_physical_addr_in[12] dtlb_physical_addr_in[13] dtlb_physical_addr_in[14] dtlb_physical_addr_in[15]
+ dtlb_physical_addr_in[16] dtlb_physical_addr_in[17] dtlb_physical_addr_in[18] dtlb_physical_addr_in[19]
+ dtlb_physical_addr_in[1] dtlb_physical_addr_in[2] dtlb_physical_addr_in[3] dtlb_physical_addr_in[4]
+ dtlb_physical_addr_in[5] dtlb_physical_addr_in[6] dtlb_physical_addr_in[7] dtlb_physical_addr_in[8]
+ dtlb_physical_addr_in[9] hit_dtlb_in hit_itlb_in icache_request is_dcache_ready
+ is_icache_ready is_mem_req itlb_physical_addr_in[0] itlb_physical_addr_in[10] itlb_physical_addr_in[11]
+ itlb_physical_addr_in[12] itlb_physical_addr_in[13] itlb_physical_addr_in[14] itlb_physical_addr_in[15]
+ itlb_physical_addr_in[16] itlb_physical_addr_in[17] itlb_physical_addr_in[18] itlb_physical_addr_in[19]
+ itlb_physical_addr_in[1] itlb_physical_addr_in[2] itlb_physical_addr_in[3] itlb_physical_addr_in[4]
+ itlb_physical_addr_in[5] itlb_physical_addr_in[6] itlb_physical_addr_in[7] itlb_physical_addr_in[8]
+ itlb_physical_addr_in[9] mem_addr[0] mem_addr[10] mem_addr[11] mem_addr[12] mem_addr[13]
+ mem_addr[14] mem_addr[15] mem_addr[16] mem_addr[17] mem_addr[18] mem_addr[19] mem_addr[1]
+ mem_addr[2] mem_addr[3] mem_addr[4] mem_addr[5] mem_addr[6] mem_addr[7] mem_addr[8]
+ mem_addr[9] mem_ready mem_to_dcache_data[0] mem_to_dcache_data[100] mem_to_dcache_data[101]
+ mem_to_dcache_data[102] mem_to_dcache_data[103] mem_to_dcache_data[104] mem_to_dcache_data[105]
+ mem_to_dcache_data[106] mem_to_dcache_data[107] mem_to_dcache_data[108] mem_to_dcache_data[109]
+ mem_to_dcache_data[10] mem_to_dcache_data[110] mem_to_dcache_data[111] mem_to_dcache_data[112]
+ mem_to_dcache_data[113] mem_to_dcache_data[114] mem_to_dcache_data[115] mem_to_dcache_data[116]
+ mem_to_dcache_data[117] mem_to_dcache_data[118] mem_to_dcache_data[119] mem_to_dcache_data[11]
+ mem_to_dcache_data[120] mem_to_dcache_data[121] mem_to_dcache_data[122] mem_to_dcache_data[123]
+ mem_to_dcache_data[124] mem_to_dcache_data[125] mem_to_dcache_data[126] mem_to_dcache_data[127]
+ mem_to_dcache_data[12] mem_to_dcache_data[13] mem_to_dcache_data[14] mem_to_dcache_data[15]
+ mem_to_dcache_data[16] mem_to_dcache_data[17] mem_to_dcache_data[18] mem_to_dcache_data[19]
+ mem_to_dcache_data[1] mem_to_dcache_data[20] mem_to_dcache_data[21] mem_to_dcache_data[22]
+ mem_to_dcache_data[23] mem_to_dcache_data[24] mem_to_dcache_data[25] mem_to_dcache_data[26]
+ mem_to_dcache_data[27] mem_to_dcache_data[28] mem_to_dcache_data[29] mem_to_dcache_data[2]
+ mem_to_dcache_data[30] mem_to_dcache_data[31] mem_to_dcache_data[32] mem_to_dcache_data[33]
+ mem_to_dcache_data[34] mem_to_dcache_data[35] mem_to_dcache_data[36] mem_to_dcache_data[37]
+ mem_to_dcache_data[38] mem_to_dcache_data[39] mem_to_dcache_data[3] mem_to_dcache_data[40]
+ mem_to_dcache_data[41] mem_to_dcache_data[42] mem_to_dcache_data[43] mem_to_dcache_data[44]
+ mem_to_dcache_data[45] mem_to_dcache_data[46] mem_to_dcache_data[47] mem_to_dcache_data[48]
+ mem_to_dcache_data[49] mem_to_dcache_data[4] mem_to_dcache_data[50] mem_to_dcache_data[51]
+ mem_to_dcache_data[52] mem_to_dcache_data[53] mem_to_dcache_data[54] mem_to_dcache_data[55]
+ mem_to_dcache_data[56] mem_to_dcache_data[57] mem_to_dcache_data[58] mem_to_dcache_data[59]
+ mem_to_dcache_data[5] mem_to_dcache_data[60] mem_to_dcache_data[61] mem_to_dcache_data[62]
+ mem_to_dcache_data[63] mem_to_dcache_data[64] mem_to_dcache_data[65] mem_to_dcache_data[66]
+ mem_to_dcache_data[67] mem_to_dcache_data[68] mem_to_dcache_data[69] mem_to_dcache_data[6]
+ mem_to_dcache_data[70] mem_to_dcache_data[71] mem_to_dcache_data[72] mem_to_dcache_data[73]
+ mem_to_dcache_data[74] mem_to_dcache_data[75] mem_to_dcache_data[76] mem_to_dcache_data[77]
+ mem_to_dcache_data[78] mem_to_dcache_data[79] mem_to_dcache_data[7] mem_to_dcache_data[80]
+ mem_to_dcache_data[81] mem_to_dcache_data[82] mem_to_dcache_data[83] mem_to_dcache_data[84]
+ mem_to_dcache_data[85] mem_to_dcache_data[86] mem_to_dcache_data[87] mem_to_dcache_data[88]
+ mem_to_dcache_data[89] mem_to_dcache_data[8] mem_to_dcache_data[90] mem_to_dcache_data[91]
+ mem_to_dcache_data[92] mem_to_dcache_data[93] mem_to_dcache_data[94] mem_to_dcache_data[95]
+ mem_to_dcache_data[96] mem_to_dcache_data[97] mem_to_dcache_data[98] mem_to_dcache_data[99]
+ mem_to_dcache_data[9] mem_to_icache_data[0] mem_to_icache_data[100] mem_to_icache_data[101]
+ mem_to_icache_data[102] mem_to_icache_data[103] mem_to_icache_data[104] mem_to_icache_data[105]
+ mem_to_icache_data[106] mem_to_icache_data[107] mem_to_icache_data[108] mem_to_icache_data[109]
+ mem_to_icache_data[10] mem_to_icache_data[110] mem_to_icache_data[111] mem_to_icache_data[112]
+ mem_to_icache_data[113] mem_to_icache_data[114] mem_to_icache_data[115] mem_to_icache_data[116]
+ mem_to_icache_data[117] mem_to_icache_data[118] mem_to_icache_data[119] mem_to_icache_data[11]
+ mem_to_icache_data[120] mem_to_icache_data[121] mem_to_icache_data[122] mem_to_icache_data[123]
+ mem_to_icache_data[124] mem_to_icache_data[125] mem_to_icache_data[126] mem_to_icache_data[127]
+ mem_to_icache_data[12] mem_to_icache_data[13] mem_to_icache_data[14] mem_to_icache_data[15]
+ mem_to_icache_data[16] mem_to_icache_data[17] mem_to_icache_data[18] mem_to_icache_data[19]
+ mem_to_icache_data[1] mem_to_icache_data[20] mem_to_icache_data[21] mem_to_icache_data[22]
+ mem_to_icache_data[23] mem_to_icache_data[24] mem_to_icache_data[25] mem_to_icache_data[26]
+ mem_to_icache_data[27] mem_to_icache_data[28] mem_to_icache_data[29] mem_to_icache_data[2]
+ mem_to_icache_data[30] mem_to_icache_data[31] mem_to_icache_data[32] mem_to_icache_data[33]
+ mem_to_icache_data[34] mem_to_icache_data[35] mem_to_icache_data[36] mem_to_icache_data[37]
+ mem_to_icache_data[38] mem_to_icache_data[39] mem_to_icache_data[3] mem_to_icache_data[40]
+ mem_to_icache_data[41] mem_to_icache_data[42] mem_to_icache_data[43] mem_to_icache_data[44]
+ mem_to_icache_data[45] mem_to_icache_data[46] mem_to_icache_data[47] mem_to_icache_data[48]
+ mem_to_icache_data[49] mem_to_icache_data[4] mem_to_icache_data[50] mem_to_icache_data[51]
+ mem_to_icache_data[52] mem_to_icache_data[53] mem_to_icache_data[54] mem_to_icache_data[55]
+ mem_to_icache_data[56] mem_to_icache_data[57] mem_to_icache_data[58] mem_to_icache_data[59]
+ mem_to_icache_data[5] mem_to_icache_data[60] mem_to_icache_data[61] mem_to_icache_data[62]
+ mem_to_icache_data[63] mem_to_icache_data[64] mem_to_icache_data[65] mem_to_icache_data[66]
+ mem_to_icache_data[67] mem_to_icache_data[68] mem_to_icache_data[69] mem_to_icache_data[6]
+ mem_to_icache_data[70] mem_to_icache_data[71] mem_to_icache_data[72] mem_to_icache_data[73]
+ mem_to_icache_data[74] mem_to_icache_data[75] mem_to_icache_data[76] mem_to_icache_data[77]
+ mem_to_icache_data[78] mem_to_icache_data[79] mem_to_icache_data[7] mem_to_icache_data[80]
+ mem_to_icache_data[81] mem_to_icache_data[82] mem_to_icache_data[83] mem_to_icache_data[84]
+ mem_to_icache_data[85] mem_to_icache_data[86] mem_to_icache_data[87] mem_to_icache_data[88]
+ mem_to_icache_data[89] mem_to_icache_data[8] mem_to_icache_data[90] mem_to_icache_data[91]
+ mem_to_icache_data[92] mem_to_icache_data[93] mem_to_icache_data[94] mem_to_icache_data[95]
+ mem_to_icache_data[96] mem_to_icache_data[97] mem_to_icache_data[98] mem_to_icache_data[99]
+ mem_to_icache_data[9] mem_we reset reset_mem_req vccd1 vssd1
XTAP_199 vssd1 vccd1 sky130_fd_sc_hd__tapvpwrvgnd_1
XTAP_188 vssd1 vccd1 sky130_fd_sc_hd__tapvpwrvgnd_1
XTAP_177 vssd1 vccd1 sky130_fd_sc_hd__tapvpwrvgnd_1
XFILLER_39_277 vssd1 vssd1 vccd1 vccd1 sky130_fd_sc_hd__decap_3
XFILLER_54_258 vssd1 vssd1 vccd1 vccd1 sky130_fd_sc_hd__decap_4
XFILLER_22_133 vssd1 vssd1 vccd1 vccd1 sky130_fd_sc_hd__decap_6
XFILLER_22_177 vssd1 vssd1 vccd1 vccd1 sky130_fd_sc_hd__decap_12
XANTENNA_input127_A data_from_mem[98] vssd1 vssd1 vccd1 vccd1 sky130_fd_sc_hd__diode_2
X_501_ _501_/A _505_/B vssd1 vssd1 vccd1 vccd1 _502_/A sky130_fd_sc_hd__and2_1
XFILLER_45_258 vssd1 vssd1 vccd1 vccd1 sky130_fd_sc_hd__fill_2
X_432_ _432_/A _438_/B vssd1 vssd1 vccd1 vccd1 _433_/A sky130_fd_sc_hd__and2_1
XFILLER_60_217 vssd1 vssd1 vccd1 vccd1 sky130_fd_sc_hd__decap_6
XFILLER_26_85 vssd1 vssd1 vccd1 vccd1 sky130_fd_sc_hd__decap_12
XFILLER_13_166 vssd1 vssd1 vccd1 vccd1 sky130_fd_sc_hd__fill_2
XFILLER_9_115 vssd1 vssd1 vccd1 vccd1 sky130_fd_sc_hd__decap_4
X_363_ _363_/A vssd1 vssd1 vccd1 vccd1 _363_/X sky130_fd_sc_hd__clkbuf_1
XFILLER_9_137 vssd1 vssd1 vccd1 vccd1 sky130_fd_sc_hd__decap_4
XFILLER_13_199 vssd1 vssd1 vccd1 vccd1 sky130_fd_sc_hd__decap_6
X_294_ _345_/A _341_/B _332_/Y _343_/Y vssd1 vssd1 vccd1 vccd1 _294_/Y sky130_fd_sc_hd__o211ai_4
XFILLER_42_40 vssd1 vssd1 vccd1 vccd1 sky130_fd_sc_hd__decap_12
XANTENNA_input92_A data_from_mem[66] vssd1 vssd1 vccd1 vccd1 sky130_fd_sc_hd__diode_2
XFILLER_5_332 vssd1 vssd1 vccd1 vccd1 sky130_fd_sc_hd__decap_4
XFILLER_3_45 vssd1 vssd1 vccd1 vccd1 sky130_fd_sc_hd__decap_4
XANTENNA_output346_A _397_/X vssd1 vssd1 vccd1 vccd1 sky130_fd_sc_hd__diode_2
XANTENNA_output513_A _567_/X vssd1 vssd1 vccd1 vccd1 sky130_fd_sc_hd__diode_2
XFILLER_51_206 vssd1 vssd1 vccd1 vccd1 sky130_fd_sc_hd__decap_12
XFILLER_44_291 vssd1 vssd1 vccd1 vccd1 sky130_fd_sc_hd__decap_4
XFILLER_8_181 vssd1 vssd1 vccd1 vccd1 sky130_fd_sc_hd__decap_4
XFILLER_8_170 vssd1 vssd1 vccd1 vccd1 sky130_fd_sc_hd__decap_8
Xoutput401 _509_/X vssd1 vssd1 vccd1 vccd1 dcache_to_mem_data_out[70] sky130_fd_sc_hd__buf_2
Xoutput412 _531_/X vssd1 vssd1 vccd1 vccd1 dcache_to_mem_data_out[80] sky130_fd_sc_hd__buf_2
Xoutput434 _329_/Y vssd1 vssd1 vccd1 vccd1 is_dcache_ready sky130_fd_sc_hd__buf_2
Xoutput423 _212_/X vssd1 vssd1 vccd1 vccd1 dcache_to_mem_data_out[90] sky130_fd_sc_hd__buf_2
Xoutput456 _310_/X vssd1 vssd1 vccd1 vccd1 mem_addr[9] sky130_fd_sc_hd__buf_2
Xoutput445 _321_/X vssd1 vssd1 vccd1 vccd1 mem_addr[17] sky130_fd_sc_hd__buf_2
Xoutput467 _641_/X vssd1 vssd1 vccd1 vccd1 mem_to_dcache_data[109] sky130_fd_sc_hd__buf_2
Xoutput478 _651_/X vssd1 vssd1 vccd1 vccd1 mem_to_dcache_data[119] sky130_fd_sc_hd__buf_2
Xoutput489 _545_/X vssd1 vssd1 vccd1 vccd1 mem_to_dcache_data[13] sky130_fd_sc_hd__buf_2
XFILLER_47_29 vssd1 vssd1 vccd1 vccd1 sky130_fd_sc_hd__decap_4
XFILLER_27_214 vssd1 vssd1 vccd1 vccd1 sky130_fd_sc_hd__decap_4
XFILLER_27_225 vssd1 vssd1 vccd1 vccd1 sky130_fd_sc_hd__fill_1
XFILLER_35_291 vssd1 vssd1 vccd1 vccd1 sky130_fd_sc_hd__decap_4
XFILLER_50_250 vssd1 vssd1 vccd1 vccd1 sky130_fd_sc_hd__fill_2
XFILLER_12_32 vssd1 vssd1 vccd1 vccd1 sky130_fd_sc_hd__decap_4
XFILLER_6_129 vssd1 vssd1 vccd1 vccd1 sky130_fd_sc_hd__decap_4
XFILLER_12_87 vssd1 vssd1 vccd1 vccd1 sky130_fd_sc_hd__decap_4
XANTENNA_input244_A dcache_to_mem_data_in[87] vssd1 vssd1 vccd1 vccd1 sky130_fd_sc_hd__diode_2
XFILLER_58_394 vssd1 vssd1 vccd1 vccd1 sky130_fd_sc_hd__decap_4
XFILLER_33_217 vssd1 vssd1 vccd1 vccd1 sky130_fd_sc_hd__fill_1
X_415_ _415_/A _415_/B vssd1 vssd1 vccd1 vccd1 _416_/A sky130_fd_sc_hd__and2_1
X_346_ _343_/Y _345_/X _335_/X vssd1 vssd1 vccd1 vccd1 _792_/D sky130_fd_sc_hd__a21oi_1
X_277_ _277_/A _285_/B vssd1 vssd1 vccd1 vccd1 _278_/A sky130_fd_sc_hd__and2_1
XANTENNA_output630_A _685_/X vssd1 vssd1 vccd1 vccd1 sky130_fd_sc_hd__diode_2
XFILLER_56_309 vssd1 vssd1 vccd1 vccd1 sky130_fd_sc_hd__fill_2
XFILLER_49_361 vssd1 vssd1 vccd1 vccd1 sky130_fd_sc_hd__decap_4
XFILLER_32_283 vssd1 vssd1 vccd1 vccd1 sky130_fd_sc_hd__decap_4
XFILLER_55_353 vssd1 vssd1 vccd1 vccd1 sky130_fd_sc_hd__decap_4
XFILLER_30_209 vssd1 vssd1 vccd1 vccd1 sky130_fd_sc_hd__decap_8
XFILLER_23_283 vssd1 vssd1 vccd1 vccd1 sky130_fd_sc_hd__decap_4
X_200_ _200_/A _208_/B vssd1 vssd1 vccd1 vccd1 _201_/A sky130_fd_sc_hd__and2_1
XFILLER_23_53 vssd1 vssd1 vccd1 vccd1 sky130_fd_sc_hd__decap_3
XANTENNA_input194_A dcache_to_mem_data_in[41] vssd1 vssd1 vccd1 vccd1 sky130_fd_sc_hd__diode_2
XFILLER_2_143 vssd1 vssd1 vccd1 vccd1 sky130_fd_sc_hd__decap_4
XANTENNA_input55_A data_from_mem[32] vssd1 vssd1 vccd1 vccd1 sky130_fd_sc_hd__diode_2
XFILLER_38_309 vssd1 vssd1 vccd1 vccd1 sky130_fd_sc_hd__decap_4
XFILLER_48_61 vssd1 vssd1 vccd1 vccd1 sky130_fd_sc_hd__decap_4
XFILLER_48_83 vssd1 vssd1 vccd1 vccd1 sky130_fd_sc_hd__fill_1
XFILLER_0_24 vssd1 vssd1 vccd1 vccd1 sky130_fd_sc_hd__decap_4
XFILLER_0_13 vssd1 vssd1 vccd1 vccd1 sky130_fd_sc_hd__decap_4
XANTENNA_output309_A _238_/X vssd1 vssd1 vccd1 vccd1 sky130_fd_sc_hd__diode_2
XFILLER_61_301 vssd1 vssd1 vccd1 vccd1 sky130_fd_sc_hd__decap_4
XFILLER_64_93 vssd1 vssd1 vccd1 vccd1 sky130_fd_sc_hd__decap_4
XFILLER_9_33 vssd1 vssd1 vccd1 vccd1 sky130_fd_sc_hd__decap_4
XFILLER_9_77 vssd1 vssd1 vccd1 vccd1 sky130_fd_sc_hd__decap_4
X_329_ _341_/A _345_/B vssd1 vssd1 vccd1 vccd1 _329_/Y sky130_fd_sc_hd__nor2_2
XFILLER_56_139 vssd1 vssd1 vccd1 vccd1 sky130_fd_sc_hd__fill_1
XFILLER_20_253 vssd1 vssd1 vccd1 vccd1 sky130_fd_sc_hd__decap_12
XANTENNA__211__B _219_/B vssd1 vssd1 vccd1 vccd1 sky130_fd_sc_hd__diode_2
XFILLER_47_117 vssd1 vssd1 vccd1 vccd1 sky130_fd_sc_hd__fill_1
XFILLER_18_31 vssd1 vssd1 vccd1 vccd1 sky130_fd_sc_hd__decap_4
X_680_ _680_/A vssd1 vssd1 vccd1 vccd1 _680_/X sky130_fd_sc_hd__clkbuf_2
XFILLER_28_375 vssd1 vssd1 vccd1 vccd1 sky130_fd_sc_hd__decap_4
XFILLER_55_161 vssd1 vssd1 vccd1 vccd1 sky130_fd_sc_hd__fill_1
XFILLER_18_97 vssd1 vssd1 vccd1 vccd1 sky130_fd_sc_hd__decap_12
XFILLER_43_312 vssd1 vssd1 vccd1 vccd1 sky130_fd_sc_hd__decap_12
XFILLER_55_183 vssd1 vssd1 vccd1 vccd1 sky130_fd_sc_hd__decap_4
XANTENNA_input207_A dcache_to_mem_data_in[53] vssd1 vssd1 vccd1 vccd1 sky130_fd_sc_hd__diode_2
XFILLER_34_74 vssd1 vssd1 vccd1 vccd1 sky130_fd_sc_hd__decap_8
XFILLER_34_85 vssd1 vssd1 vccd1 vccd1 sky130_fd_sc_hd__decap_6
XFILLER_34_96 vssd1 vssd1 vccd1 vccd1 sky130_fd_sc_hd__decap_4
XFILLER_11_242 vssd1 vssd1 vccd1 vccd1 sky130_fd_sc_hd__decap_4
XFILLER_7_279 vssd1 vssd1 vccd1 vccd1 sky130_fd_sc_hd__fill_1
XFILLER_50_73 vssd1 vssd1 vccd1 vccd1 sky130_fd_sc_hd__decap_4
XTAP_507 vssd1 vccd1 sky130_fd_sc_hd__tapvpwrvgnd_1
XANTENNA__402__A _402_/A vssd1 vssd1 vccd1 vccd1 sky130_fd_sc_hd__diode_2
XTAP_518 vssd1 vccd1 sky130_fd_sc_hd__tapvpwrvgnd_1
XTAP_529 vssd1 vccd1 sky130_fd_sc_hd__tapvpwrvgnd_1
XFILLER_22_7 vssd1 vssd1 vccd1 vccd1 sky130_fd_sc_hd__decap_4
XFILLER_59_93 vssd1 vssd1 vccd1 vccd1 sky130_fd_sc_hd__decap_4
XFILLER_38_139 vssd1 vssd1 vccd1 vccd1 sky130_fd_sc_hd__fill_1
XFILLER_19_342 vssd1 vssd1 vccd1 vccd1 sky130_fd_sc_hd__decap_4
XFILLER_19_364 vssd1 vssd1 vccd1 vccd1 sky130_fd_sc_hd__fill_1
XFILLER_19_397 vssd1 vssd1 vccd1 vccd1 sky130_fd_sc_hd__fill_1
XFILLER_61_164 vssd1 vssd1 vccd1 vccd1 sky130_fd_sc_hd__decap_4
XFILLER_44_109 vssd1 vssd1 vccd1 vccd1 sky130_fd_sc_hd__decap_12
XFILLER_55_29 vssd1 vssd1 vccd1 vccd1 sky130_fd_sc_hd__decap_4
XFILLER_37_161 vssd1 vssd1 vccd1 vccd1 sky130_fd_sc_hd__decap_6
XFILLER_40_337 vssd1 vssd1 vccd1 vccd1 sky130_fd_sc_hd__decap_12
XFILLER_52_197 vssd1 vssd1 vccd1 vccd1 sky130_fd_sc_hd__decap_4
XANTENNA__206__B _208_/B vssd1 vssd1 vccd1 vccd1 sky130_fd_sc_hd__diode_2
XFILLER_20_10 vssd1 vssd1 vccd1 vccd1 sky130_fd_sc_hd__decap_4
XFILLER_20_43 vssd1 vssd1 vccd1 vccd1 sky130_fd_sc_hd__decap_12
XANTENNA_input157_A dcache_to_mem_data_in[123] vssd1 vssd1 vccd1 vccd1 sky130_fd_sc_hd__diode_2
Xinput301 itlb_physical_addr_in[8] vssd1 vssd1 vccd1 vccd1 _309_/A1 sky130_fd_sc_hd__buf_4
XFILLER_29_41 vssd1 vssd1 vccd1 vccd1 sky130_fd_sc_hd__decap_4
X_732_ _732_/A vssd1 vssd1 vccd1 vccd1 _732_/X sky130_fd_sc_hd__clkbuf_2
XANTENNA_input18_A data_from_mem[114] vssd1 vssd1 vccd1 vccd1 sky130_fd_sc_hd__diode_2
X_663_ _663_/A vssd1 vssd1 vccd1 vccd1 _663_/X sky130_fd_sc_hd__clkbuf_1
X_594_ _722_/A vssd1 vssd1 vccd1 vccd1 _594_/X sky130_fd_sc_hd__buf_2
XFILLER_16_367 vssd1 vssd1 vccd1 vccd1 sky130_fd_sc_hd__decap_4
XFILLER_28_194 vssd1 vssd1 vccd1 vccd1 sky130_fd_sc_hd__fill_2
XFILLER_45_51 vssd1 vssd1 vccd1 vccd1 sky130_fd_sc_hd__decap_4
XFILLER_31_326 vssd1 vssd1 vccd1 vccd1 sky130_fd_sc_hd__decap_8
XFILLER_43_164 vssd1 vssd1 vccd1 vccd1 sky130_fd_sc_hd__decap_4
XFILLER_43_175 vssd1 vssd1 vccd1 vccd1 sky130_fd_sc_hd__decap_8
XFILLER_31_337 vssd1 vssd1 vccd1 vccd1 sky130_fd_sc_hd__decap_12
XFILLER_61_61 vssd1 vssd1 vccd1 vccd1 sky130_fd_sc_hd__decap_4
XTAP_304 vssd1 vccd1 sky130_fd_sc_hd__tapvpwrvgnd_1
XTAP_315 vssd1 vccd1 sky130_fd_sc_hd__tapvpwrvgnd_1
XANTENNA_output543_A _594_/X vssd1 vssd1 vccd1 vccd1 sky130_fd_sc_hd__diode_2
XTAP_326 vssd1 vccd1 sky130_fd_sc_hd__tapvpwrvgnd_1