* NGSPICE file created from chip_controller.ext - technology: sky130A

* Black-box entry subcircuit for sky130_fd_sc_hd__fill_1 abstract view
.subckt sky130_fd_sc_hd__fill_1 VGND VNB VPB VPWR
.ends

* Black-box entry subcircuit for sky130_fd_sc_hd__dfxtp_4 abstract view
.subckt sky130_fd_sc_hd__dfxtp_4 CLK D VGND VNB VPB VPWR Q
.ends

* Black-box entry subcircuit for sky130_fd_sc_hd__dfxtp_2 abstract view
.subckt sky130_fd_sc_hd__dfxtp_2 CLK D VGND VNB VPB VPWR Q
.ends

* Black-box entry subcircuit for sky130_fd_sc_hd__diode_2 abstract view
.subckt sky130_fd_sc_hd__diode_2 DIODE VGND VNB VPB VPWR
.ends

* Black-box entry subcircuit for sky130_fd_sc_hd__decap_12 abstract view
.subckt sky130_fd_sc_hd__decap_12 VGND VNB VPB VPWR
.ends

* Black-box entry subcircuit for sky130_fd_sc_hd__decap_3 abstract view
.subckt sky130_fd_sc_hd__decap_3 VGND VNB VPB VPWR
.ends

* Black-box entry subcircuit for sky130_fd_sc_hd__fill_8 abstract view
.subckt sky130_fd_sc_hd__fill_8 VGND VNB VPB VPWR
.ends

* Black-box entry subcircuit for sky130_fd_sc_hd__decap_4 abstract view
.subckt sky130_fd_sc_hd__decap_4 VGND VNB VPB VPWR
.ends

* Black-box entry subcircuit for sky130_fd_sc_hd__fill_2 abstract view
.subckt sky130_fd_sc_hd__fill_2 VGND VNB VPB VPWR
.ends

* Black-box entry subcircuit for sky130_fd_sc_hd__conb_1 abstract view
.subckt sky130_fd_sc_hd__conb_1 VGND VNB VPB VPWR HI LO
.ends

* Black-box entry subcircuit for sky130_fd_sc_hd__tapvpwrvgnd_1 abstract view
.subckt sky130_fd_sc_hd__tapvpwrvgnd_1 VGND VPWR
.ends

* Black-box entry subcircuit for sky130_fd_sc_hd__decap_6 abstract view
.subckt sky130_fd_sc_hd__decap_6 VGND VNB VPB VPWR
.ends

* Black-box entry subcircuit for sky130_fd_sc_hd__decap_8 abstract view
.subckt sky130_fd_sc_hd__decap_8 VGND VNB VPB VPWR
.ends

* Black-box entry subcircuit for sky130_fd_sc_hd__inv_2 abstract view
.subckt sky130_fd_sc_hd__inv_2 A VGND VNB VPB VPWR Y
.ends

* Black-box entry subcircuit for sky130_fd_sc_hd__and2_1 abstract view
.subckt sky130_fd_sc_hd__and2_1 A B VGND VNB VPB VPWR X
.ends

* Black-box entry subcircuit for sky130_fd_sc_hd__buf_2 abstract view
.subckt sky130_fd_sc_hd__buf_2 A VGND VNB VPB VPWR X
.ends

* Black-box entry subcircuit for sky130_fd_sc_hd__fill_4 abstract view
.subckt sky130_fd_sc_hd__fill_4 VGND VNB VPB VPWR
.ends

* Black-box entry subcircuit for sky130_fd_sc_hd__a22o_1 abstract view
.subckt sky130_fd_sc_hd__a22o_1 A1 A2 B1 B2 VGND VNB VPB VPWR X
.ends

* Black-box entry subcircuit for sky130_fd_sc_hd__or2_1 abstract view
.subckt sky130_fd_sc_hd__or2_1 A B VGND VNB VPB VPWR X
.ends

* Black-box entry subcircuit for sky130_fd_sc_hd__a21oi_1 abstract view
.subckt sky130_fd_sc_hd__a21oi_1 A1 A2 B1 VGND VNB VPB VPWR Y
.ends

* Black-box entry subcircuit for sky130_fd_sc_hd__mux2_1 abstract view
.subckt sky130_fd_sc_hd__mux2_1 A0 A1 S VGND VNB VPB VPWR X
.ends

* Black-box entry subcircuit for sky130_fd_sc_hd__clkbuf_1 abstract view
.subckt sky130_fd_sc_hd__clkbuf_1 A VGND VNB VPB VPWR X
.ends

* Black-box entry subcircuit for sky130_fd_sc_hd__and3_1 abstract view
.subckt sky130_fd_sc_hd__and3_1 A B C VGND VNB VPB VPWR X
.ends

* Black-box entry subcircuit for sky130_fd_sc_hd__clkbuf_4 abstract view
.subckt sky130_fd_sc_hd__clkbuf_4 A VGND VNB VPB VPWR X
.ends

* Black-box entry subcircuit for sky130_fd_sc_hd__dfxtp_1 abstract view
.subckt sky130_fd_sc_hd__dfxtp_1 CLK D VGND VNB VPB VPWR Q
.ends

* Black-box entry subcircuit for sky130_fd_sc_hd__mux2_4 abstract view
.subckt sky130_fd_sc_hd__mux2_4 A0 A1 S VGND VNB VPB VPWR X
.ends

* Black-box entry subcircuit for sky130_fd_sc_hd__buf_6 abstract view
.subckt sky130_fd_sc_hd__buf_6 A VGND VNB VPB VPWR X
.ends

* Black-box entry subcircuit for sky130_fd_sc_hd__dlymetal6s2s_1 abstract view
.subckt sky130_fd_sc_hd__dlymetal6s2s_1 A VGND VNB VPB VPWR X
.ends

* Black-box entry subcircuit for sky130_fd_sc_hd__clkbuf_2 abstract view
.subckt sky130_fd_sc_hd__clkbuf_2 A VGND VNB VPB VPWR X
.ends

* Black-box entry subcircuit for sky130_fd_sc_hd__o22a_1 abstract view
.subckt sky130_fd_sc_hd__o22a_1 A1 A2 B1 B2 VGND VNB VPB VPWR X
.ends

* Black-box entry subcircuit for sky130_fd_sc_hd__nor2_1 abstract view
.subckt sky130_fd_sc_hd__nor2_1 A B VGND VNB VPB VPWR Y
.ends

* Black-box entry subcircuit for sky130_fd_sc_hd__a21boi_1 abstract view
.subckt sky130_fd_sc_hd__a21boi_1 A1 A2 B1_N VGND VNB VPB VPWR Y
.ends

* Black-box entry subcircuit for sky130_fd_sc_hd__o21a_1 abstract view
.subckt sky130_fd_sc_hd__o21a_1 A1 A2 B1 VGND VNB VPB VPWR X
.ends

* Black-box entry subcircuit for sky130_fd_sc_hd__mux2_8 abstract view
.subckt sky130_fd_sc_hd__mux2_8 A0 A1 S VGND VNB VPB VPWR X
.ends

* Black-box entry subcircuit for sky130_fd_sc_hd__buf_4 abstract view
.subckt sky130_fd_sc_hd__buf_4 A VGND VNB VPB VPWR X
.ends

* Black-box entry subcircuit for sky130_fd_sc_hd__and2_2 abstract view
.subckt sky130_fd_sc_hd__and2_2 A B VGND VNB VPB VPWR X
.ends

* Black-box entry subcircuit for sky130_fd_sc_hd__mux2_2 abstract view
.subckt sky130_fd_sc_hd__mux2_2 A0 A1 S VGND VNB VPB VPWR X
.ends

* Black-box entry subcircuit for sky130_fd_sc_hd__a22oi_2 abstract view
.subckt sky130_fd_sc_hd__a22oi_2 A1 A2 B1 B2 VGND VNB VPB VPWR Y
.ends

* Black-box entry subcircuit for sky130_fd_sc_hd__buf_12 abstract view
.subckt sky130_fd_sc_hd__buf_12 A VGND VNB VPB VPWR X
.ends

* Black-box entry subcircuit for sky130_fd_sc_hd__buf_8 abstract view
.subckt sky130_fd_sc_hd__buf_8 A VGND VNB VPB VPWR X
.ends

* Black-box entry subcircuit for sky130_fd_sc_hd__o221a_1 abstract view
.subckt sky130_fd_sc_hd__o221a_1 A1 A2 B1 B2 C1 VGND VNB VPB VPWR X
.ends

* Black-box entry subcircuit for sky130_fd_sc_hd__a31oi_1 abstract view
.subckt sky130_fd_sc_hd__a31oi_1 A1 A2 A3 B1 VGND VNB VPB VPWR Y
.ends

* Black-box entry subcircuit for sky130_fd_sc_hd__inv_4 abstract view
.subckt sky130_fd_sc_hd__inv_4 A VGND VNB VPB VPWR Y
.ends

* Black-box entry subcircuit for sky130_fd_sc_hd__or4_2 abstract view
.subckt sky130_fd_sc_hd__or4_2 A B C D VGND VNB VPB VPWR X
.ends

* Black-box entry subcircuit for sky130_fd_sc_hd__or3_4 abstract view
.subckt sky130_fd_sc_hd__or3_4 A B C VGND VNB VPB VPWR X
.ends

* Black-box entry subcircuit for sky130_fd_sc_hd__or2_2 abstract view
.subckt sky130_fd_sc_hd__or2_2 A B VGND VNB VPB VPWR X
.ends

* Black-box entry subcircuit for sky130_fd_sc_hd__a22oi_1 abstract view
.subckt sky130_fd_sc_hd__a22oi_1 A1 A2 B1 B2 VGND VNB VPB VPWR Y
.ends

* Black-box entry subcircuit for sky130_fd_sc_hd__nor3_4 abstract view
.subckt sky130_fd_sc_hd__nor3_4 A B C VGND VNB VPB VPWR Y
.ends

* Black-box entry subcircuit for sky130_fd_sc_hd__and2b_1 abstract view
.subckt sky130_fd_sc_hd__and2b_1 A_N B VGND VNB VPB VPWR X
.ends

* Black-box entry subcircuit for sky130_fd_sc_hd__a32o_1 abstract view
.subckt sky130_fd_sc_hd__a32o_1 A1 A2 A3 B1 B2 VGND VNB VPB VPWR X
.ends

* Black-box entry subcircuit for sky130_fd_sc_hd__or3_1 abstract view
.subckt sky130_fd_sc_hd__or3_1 A B C VGND VNB VPB VPWR X
.ends

* Black-box entry subcircuit for sky130_fd_sc_hd__clkbuf_8 abstract view
.subckt sky130_fd_sc_hd__clkbuf_8 A VGND VNB VPB VPWR X
.ends

* Black-box entry subcircuit for sky130_fd_sc_hd__clkbuf_16 abstract view
.subckt sky130_fd_sc_hd__clkbuf_16 A VGND VNB VPB VPWR X
.ends

* Black-box entry subcircuit for sky130_fd_sc_hd__nand2_1 abstract view
.subckt sky130_fd_sc_hd__nand2_1 A B VGND VNB VPB VPWR Y
.ends

* Black-box entry subcircuit for sky130_fd_sc_hd__o2bb2a_1 abstract view
.subckt sky130_fd_sc_hd__o2bb2a_1 A1_N A2_N B1 B2 VGND VNB VPB VPWR X
.ends

* Black-box entry subcircuit for sky130_fd_sc_hd__or3b_1 abstract view
.subckt sky130_fd_sc_hd__or3b_1 A B C_N VGND VNB VPB VPWR X
.ends

* Black-box entry subcircuit for sky130_fd_sc_hd__o211a_1 abstract view
.subckt sky130_fd_sc_hd__o211a_1 A1 A2 B1 C1 VGND VNB VPB VPWR X
.ends

* Black-box entry subcircuit for sky130_fd_sc_hd__clkinv_2 abstract view
.subckt sky130_fd_sc_hd__clkinv_2 A VGND VNB VPB VPWR Y
.ends

* Black-box entry subcircuit for sky130_fd_sc_hd__nor2_2 abstract view
.subckt sky130_fd_sc_hd__nor2_2 A B VGND VNB VPB VPWR Y
.ends

* Black-box entry subcircuit for sky130_fd_sc_hd__o311a_1 abstract view
.subckt sky130_fd_sc_hd__o311a_1 A1 A2 A3 B1 C1 VGND VNB VPB VPWR X
.ends

* Black-box entry subcircuit for sky130_fd_sc_hd__a211o_1 abstract view
.subckt sky130_fd_sc_hd__a211o_1 A1 A2 B1 C1 VGND VNB VPB VPWR X
.ends

.subckt chip_controller addr0_to_sram[0] addr0_to_sram[10] addr0_to_sram[11] addr0_to_sram[12]
+ addr0_to_sram[13] addr0_to_sram[14] addr0_to_sram[15] addr0_to_sram[16] addr0_to_sram[17]
+ addr0_to_sram[18] addr0_to_sram[19] addr0_to_sram[1] addr0_to_sram[2] addr0_to_sram[3]
+ addr0_to_sram[4] addr0_to_sram[5] addr0_to_sram[6] addr0_to_sram[7] addr0_to_sram[8]
+ addr0_to_sram[9] addr_in[0] addr_in[10] addr_in[11] addr_in[12] addr_in[13] addr_in[14]
+ addr_in[15] addr_in[16] addr_in[17] addr_in[18] addr_in[19] addr_in[1] addr_in[2]
+ addr_in[3] addr_in[4] addr_in[5] addr_in[6] addr_in[7] addr_in[8] addr_in[9] addr_to_core_mem[0]
+ addr_to_core_mem[10] addr_to_core_mem[11] addr_to_core_mem[12] addr_to_core_mem[13]
+ addr_to_core_mem[14] addr_to_core_mem[15] addr_to_core_mem[16] addr_to_core_mem[17]
+ addr_to_core_mem[18] addr_to_core_mem[19] addr_to_core_mem[1] addr_to_core_mem[2]
+ addr_to_core_mem[3] addr_to_core_mem[4] addr_to_core_mem[5] addr_to_core_mem[6]
+ addr_to_core_mem[7] addr_to_core_mem[8] addr_to_core_mem[9] clk core0_data_print[0]
+ core0_data_print[10] core0_data_print[11] core0_data_print[12] core0_data_print[13]
+ core0_data_print[14] core0_data_print[15] core0_data_print[16] core0_data_print[17]
+ core0_data_print[18] core0_data_print[19] core0_data_print[1] core0_data_print[20]
+ core0_data_print[21] core0_data_print[22] core0_data_print[23] core0_data_print[24]
+ core0_data_print[25] core0_data_print[26] core0_data_print[27] core0_data_print[28]
+ core0_data_print[29] core0_data_print[2] core0_data_print[30] core0_data_print[31]
+ core0_data_print[3] core0_data_print[4] core0_data_print[5] core0_data_print[6]
+ core0_data_print[7] core0_data_print[8] core0_data_print[9] csb0_to_sram data_out_to_core[0]
+ data_out_to_core[10] data_out_to_core[11] data_out_to_core[12] data_out_to_core[13]
+ data_out_to_core[14] data_out_to_core[15] data_out_to_core[16] data_out_to_core[17]
+ data_out_to_core[18] data_out_to_core[19] data_out_to_core[1] data_out_to_core[20]
+ data_out_to_core[21] data_out_to_core[22] data_out_to_core[23] data_out_to_core[24]
+ data_out_to_core[25] data_out_to_core[26] data_out_to_core[27] data_out_to_core[28]
+ data_out_to_core[29] data_out_to_core[2] data_out_to_core[30] data_out_to_core[31]
+ data_out_to_core[3] data_out_to_core[4] data_out_to_core[5] data_out_to_core[6]
+ data_out_to_core[7] data_out_to_core[8] data_out_to_core[9] data_to_core_mem[0]
+ data_to_core_mem[10] data_to_core_mem[11] data_to_core_mem[12] data_to_core_mem[13]
+ data_to_core_mem[14] data_to_core_mem[15] data_to_core_mem[16] data_to_core_mem[17]
+ data_to_core_mem[18] data_to_core_mem[19] data_to_core_mem[1] data_to_core_mem[20]
+ data_to_core_mem[21] data_to_core_mem[22] data_to_core_mem[23] data_to_core_mem[24]
+ data_to_core_mem[25] data_to_core_mem[26] data_to_core_mem[27] data_to_core_mem[28]
+ data_to_core_mem[29] data_to_core_mem[2] data_to_core_mem[30] data_to_core_mem[31]
+ data_to_core_mem[3] data_to_core_mem[4] data_to_core_mem[5] data_to_core_mem[6]
+ data_to_core_mem[7] data_to_core_mem[8] data_to_core_mem[9] din0_to_sram[0] din0_to_sram[10]
+ din0_to_sram[11] din0_to_sram[12] din0_to_sram[13] din0_to_sram[14] din0_to_sram[15]
+ din0_to_sram[16] din0_to_sram[17] din0_to_sram[18] din0_to_sram[19] din0_to_sram[1]
+ din0_to_sram[20] din0_to_sram[21] din0_to_sram[22] din0_to_sram[23] din0_to_sram[24]
+ din0_to_sram[25] din0_to_sram[26] din0_to_sram[27] din0_to_sram[28] din0_to_sram[29]
+ din0_to_sram[2] din0_to_sram[30] din0_to_sram[31] din0_to_sram[3] din0_to_sram[4]
+ din0_to_sram[5] din0_to_sram[6] din0_to_sram[7] din0_to_sram[8] din0_to_sram[9]
+ dout0_to_sram[0] dout0_to_sram[10] dout0_to_sram[11] dout0_to_sram[12] dout0_to_sram[13]
+ dout0_to_sram[14] dout0_to_sram[15] dout0_to_sram[16] dout0_to_sram[17] dout0_to_sram[18]
+ dout0_to_sram[19] dout0_to_sram[1] dout0_to_sram[20] dout0_to_sram[21] dout0_to_sram[22]
+ dout0_to_sram[23] dout0_to_sram[24] dout0_to_sram[25] dout0_to_sram[26] dout0_to_sram[27]
+ dout0_to_sram[28] dout0_to_sram[29] dout0_to_sram[2] dout0_to_sram[30] dout0_to_sram[31]
+ dout0_to_sram[3] dout0_to_sram[4] dout0_to_sram[5] dout0_to_sram[6] dout0_to_sram[7]
+ dout0_to_sram[8] dout0_to_sram[9] is_loading_memory_into_core is_ready_dataout_core0
+ is_ready_print_core0 la_data_in[0] la_data_in[100] la_data_in[101] la_data_in[102]
+ la_data_in[103] la_data_in[104] la_data_in[105] la_data_in[106] la_data_in[107]
+ la_data_in[108] la_data_in[109] la_data_in[10] la_data_in[110] la_data_in[111] la_data_in[112]
+ la_data_in[113] la_data_in[114] la_data_in[115] la_data_in[116] la_data_in[117]
+ la_data_in[118] la_data_in[119] la_data_in[11] la_data_in[120] la_data_in[121] la_data_in[122]
+ la_data_in[123] la_data_in[124] la_data_in[125] la_data_in[126] la_data_in[127]
+ la_data_in[12] la_data_in[13] la_data_in[14] la_data_in[15] la_data_in[16] la_data_in[17]
+ la_data_in[18] la_data_in[19] la_data_in[1] la_data_in[20] la_data_in[21] la_data_in[22]
+ la_data_in[23] la_data_in[24] la_data_in[25] la_data_in[26] la_data_in[27] la_data_in[28]
+ la_data_in[29] la_data_in[2] la_data_in[30] la_data_in[31] la_data_in[32] la_data_in[33]
+ la_data_in[34] la_data_in[35] la_data_in[36] la_data_in[37] la_data_in[38] la_data_in[39]
+ la_data_in[3] la_data_in[40] la_data_in[41] la_data_in[42] la_data_in[43] la_data_in[44]
+ la_data_in[45] la_data_in[46] la_data_in[47] la_data_in[48] la_data_in[49] la_data_in[4]
+ la_data_in[50] la_data_in[51] la_data_in[52] la_data_in[53] la_data_in[54] la_data_in[55]
+ la_data_in[56] la_data_in[57] la_data_in[58] la_data_in[59] la_data_in[5] la_data_in[60]
+ la_data_in[61] la_data_in[62] la_data_in[63] la_data_in[64] la_data_in[65] la_data_in[66]
+ la_data_in[67] la_data_in[68] la_data_in[69] la_data_in[6] la_data_in[70] la_data_in[71]
+ la_data_in[72] la_data_in[73] la_data_in[74] la_data_in[75] la_data_in[76] la_data_in[77]
+ la_data_in[78] la_data_in[79] la_data_in[7] la_data_in[80] la_data_in[81] la_data_in[82]
+ la_data_in[83] la_data_in[84] la_data_in[85] la_data_in[86] la_data_in[87] la_data_in[88]
+ la_data_in[89] la_data_in[8] la_data_in[90] la_data_in[91] la_data_in[92] la_data_in[93]
+ la_data_in[94] la_data_in[95] la_data_in[96] la_data_in[97] la_data_in[98] la_data_in[99]
+ la_data_in[9] la_data_out[0] la_data_out[100] la_data_out[101] la_data_out[102]
+ la_data_out[103] la_data_out[104] la_data_out[105] la_data_out[106] la_data_out[107]
+ la_data_out[108] la_data_out[109] la_data_out[10] la_data_out[110] la_data_out[111]
+ la_data_out[112] la_data_out[113] la_data_out[114] la_data_out[115] la_data_out[116]
+ la_data_out[117] la_data_out[118] la_data_out[119] la_data_out[11] la_data_out[120]
+ la_data_out[121] la_data_out[122] la_data_out[123] la_data_out[124] la_data_out[125]
+ la_data_out[126] la_data_out[127] la_data_out[12] la_data_out[13] la_data_out[14]
+ la_data_out[15] la_data_out[16] la_data_out[17] la_data_out[18] la_data_out[19]
+ la_data_out[1] la_data_out[20] la_data_out[21] la_data_out[22] la_data_out[23] la_data_out[24]
+ la_data_out[25] la_data_out[26] la_data_out[27] la_data_out[28] la_data_out[29]
+ la_data_out[2] la_data_out[30] la_data_out[31] la_data_out[32] la_data_out[33] la_data_out[34]
+ la_data_out[35] la_data_out[36] la_data_out[37] la_data_out[38] la_data_out[39]
+ la_data_out[3] la_data_out[40] la_data_out[41] la_data_out[42] la_data_out[43] la_data_out[44]
+ la_data_out[45] la_data_out[46] la_data_out[47] la_data_out[48] la_data_out[49]
+ la_data_out[4] la_data_out[50] la_data_out[51] la_data_out[52] la_data_out[53] la_data_out[54]
+ la_data_out[55] la_data_out[56] la_data_out[57] la_data_out[58] la_data_out[59]
+ la_data_out[5] la_data_out[60] la_data_out[61] la_data_out[62] la_data_out[63] la_data_out[64]
+ la_data_out[65] la_data_out[66] la_data_out[67] la_data_out[68] la_data_out[69]
+ la_data_out[6] la_data_out[70] la_data_out[71] la_data_out[72] la_data_out[73] la_data_out[74]
+ la_data_out[75] la_data_out[76] la_data_out[77] la_data_out[78] la_data_out[79]
+ la_data_out[7] la_data_out[80] la_data_out[81] la_data_out[82] la_data_out[83] la_data_out[84]
+ la_data_out[85] la_data_out[86] la_data_out[87] la_data_out[88] la_data_out[89]
+ la_data_out[8] la_data_out[90] la_data_out[91] la_data_out[92] la_data_out[93] la_data_out[94]
+ la_data_out[95] la_data_out[96] la_data_out[97] la_data_out[98] la_data_out[99]
+ la_data_out[9] la_oenb[0] la_oenb[100] la_oenb[101] la_oenb[102] la_oenb[103] la_oenb[104]
+ la_oenb[105] la_oenb[106] la_oenb[107] la_oenb[108] la_oenb[109] la_oenb[10] la_oenb[110]
+ la_oenb[111] la_oenb[112] la_oenb[113] la_oenb[114] la_oenb[115] la_oenb[116] la_oenb[117]
+ la_oenb[118] la_oenb[119] la_oenb[11] la_oenb[120] la_oenb[121] la_oenb[122] la_oenb[123]
+ la_oenb[124] la_oenb[125] la_oenb[126] la_oenb[127] la_oenb[12] la_oenb[13] la_oenb[14]
+ la_oenb[15] la_oenb[16] la_oenb[17] la_oenb[18] la_oenb[19] la_oenb[1] la_oenb[20]
+ la_oenb[21] la_oenb[22] la_oenb[23] la_oenb[24] la_oenb[25] la_oenb[26] la_oenb[27]
+ la_oenb[28] la_oenb[29] la_oenb[2] la_oenb[30] la_oenb[31] la_oenb[32] la_oenb[33]
+ la_oenb[34] la_oenb[35] la_oenb[36] la_oenb[37] la_oenb[38] la_oenb[39] la_oenb[3]
+ la_oenb[40] la_oenb[41] la_oenb[42] la_oenb[43] la_oenb[44] la_oenb[45] la_oenb[46]
+ la_oenb[47] la_oenb[48] la_oenb[49] la_oenb[4] la_oenb[50] la_oenb[51] la_oenb[52]
+ la_oenb[53] la_oenb[54] la_oenb[55] la_oenb[56] la_oenb[57] la_oenb[58] la_oenb[59]
+ la_oenb[5] la_oenb[60] la_oenb[61] la_oenb[62] la_oenb[63] la_oenb[64] la_oenb[65]
+ la_oenb[66] la_oenb[67] la_oenb[68] la_oenb[69] la_oenb[6] la_oenb[70] la_oenb[71]
+ la_oenb[72] la_oenb[73] la_oenb[74] la_oenb[75] la_oenb[76] la_oenb[77] la_oenb[78]
+ la_oenb[79] la_oenb[7] la_oenb[80] la_oenb[81] la_oenb[82] la_oenb[83] la_oenb[84]
+ la_oenb[85] la_oenb[86] la_oenb[87] la_oenb[88] la_oenb[89] la_oenb[8] la_oenb[90]
+ la_oenb[91] la_oenb[92] la_oenb[93] la_oenb[94] la_oenb[95] la_oenb[96] la_oenb[97]
+ la_oenb[98] la_oenb[99] la_oenb[9] rd_data_out[0] rd_data_out[100] rd_data_out[101]
+ rd_data_out[102] rd_data_out[103] rd_data_out[104] rd_data_out[105] rd_data_out[106]
+ rd_data_out[107] rd_data_out[108] rd_data_out[109] rd_data_out[10] rd_data_out[110]
+ rd_data_out[111] rd_data_out[112] rd_data_out[113] rd_data_out[114] rd_data_out[115]
+ rd_data_out[116] rd_data_out[117] rd_data_out[118] rd_data_out[119] rd_data_out[11]
+ rd_data_out[120] rd_data_out[121] rd_data_out[122] rd_data_out[123] rd_data_out[124]
+ rd_data_out[125] rd_data_out[126] rd_data_out[127] rd_data_out[12] rd_data_out[13]
+ rd_data_out[14] rd_data_out[15] rd_data_out[16] rd_data_out[17] rd_data_out[18]
+ rd_data_out[19] rd_data_out[1] rd_data_out[20] rd_data_out[21] rd_data_out[22] rd_data_out[23]
+ rd_data_out[24] rd_data_out[25] rd_data_out[26] rd_data_out[27] rd_data_out[28]
+ rd_data_out[29] rd_data_out[2] rd_data_out[30] rd_data_out[31] rd_data_out[32] rd_data_out[33]
+ rd_data_out[34] rd_data_out[35] rd_data_out[36] rd_data_out[37] rd_data_out[38]
+ rd_data_out[39] rd_data_out[3] rd_data_out[40] rd_data_out[41] rd_data_out[42] rd_data_out[43]
+ rd_data_out[44] rd_data_out[45] rd_data_out[46] rd_data_out[47] rd_data_out[48]
+ rd_data_out[49] rd_data_out[4] rd_data_out[50] rd_data_out[51] rd_data_out[52] rd_data_out[53]
+ rd_data_out[54] rd_data_out[55] rd_data_out[56] rd_data_out[57] rd_data_out[58]
+ rd_data_out[59] rd_data_out[5] rd_data_out[60] rd_data_out[61] rd_data_out[62] rd_data_out[63]
+ rd_data_out[64] rd_data_out[65] rd_data_out[66] rd_data_out[67] rd_data_out[68]
+ rd_data_out[69] rd_data_out[6] rd_data_out[70] rd_data_out[71] rd_data_out[72] rd_data_out[73]
+ rd_data_out[74] rd_data_out[75] rd_data_out[76] rd_data_out[77] rd_data_out[78]
+ rd_data_out[79] rd_data_out[7] rd_data_out[80] rd_data_out[81] rd_data_out[82] rd_data_out[83]
+ rd_data_out[84] rd_data_out[85] rd_data_out[86] rd_data_out[87] rd_data_out[88]
+ rd_data_out[89] rd_data_out[8] rd_data_out[90] rd_data_out[91] rd_data_out[92] rd_data_out[93]
+ rd_data_out[94] rd_data_out[95] rd_data_out[96] rd_data_out[97] rd_data_out[98]
+ rd_data_out[99] rd_data_out[9] read_enable_to_Elpis read_interactive_req_core0 read_value_to_Elpis[0]
+ read_value_to_Elpis[10] read_value_to_Elpis[11] read_value_to_Elpis[12] read_value_to_Elpis[13]
+ read_value_to_Elpis[14] read_value_to_Elpis[15] read_value_to_Elpis[16] read_value_to_Elpis[17]
+ read_value_to_Elpis[18] read_value_to_Elpis[19] read_value_to_Elpis[1] read_value_to_Elpis[20]
+ read_value_to_Elpis[21] read_value_to_Elpis[22] read_value_to_Elpis[23] read_value_to_Elpis[24]
+ read_value_to_Elpis[25] read_value_to_Elpis[26] read_value_to_Elpis[27] read_value_to_Elpis[28]
+ read_value_to_Elpis[29] read_value_to_Elpis[2] read_value_to_Elpis[30] read_value_to_Elpis[31]
+ read_value_to_Elpis[3] read_value_to_Elpis[4] read_value_to_Elpis[5] read_value_to_Elpis[6]
+ read_value_to_Elpis[7] read_value_to_Elpis[8] read_value_to_Elpis[9] ready req_out_core0
+ requested reset_core reset_mem_req rst spare_wen0_to_sram vccd1 vssd1 wb_clk_i wb_rst_i
+ wbs_dat_o[0] wbs_dat_o[10] wbs_dat_o[11] wbs_dat_o[12] wbs_dat_o[13] wbs_dat_o[14]
+ wbs_dat_o[15] wbs_dat_o[16] wbs_dat_o[17] wbs_dat_o[18] wbs_dat_o[19] wbs_dat_o[1]
+ wbs_dat_o[20] wbs_dat_o[21] wbs_dat_o[22] wbs_dat_o[23] wbs_dat_o[24] wbs_dat_o[25]
+ wbs_dat_o[26] wbs_dat_o[27] wbs_dat_o[28] wbs_dat_o[29] wbs_dat_o[2] wbs_dat_o[30]
+ wbs_dat_o[31] wbs_dat_o[3] wbs_dat_o[4] wbs_dat_o[5] wbs_dat_o[6] wbs_dat_o[7] wbs_dat_o[8]
+ wbs_dat_o[9] we we_to_sram wr_data[0] wr_data[100] wr_data[101] wr_data[102] wr_data[103]
+ wr_data[104] wr_data[105] wr_data[106] wr_data[107] wr_data[108] wr_data[109] wr_data[10]
+ wr_data[110] wr_data[111] wr_data[112] wr_data[113] wr_data[114] wr_data[115] wr_data[116]
+ wr_data[117] wr_data[118] wr_data[119] wr_data[11] wr_data[120] wr_data[121] wr_data[122]
+ wr_data[123] wr_data[124] wr_data[125] wr_data[126] wr_data[127] wr_data[12] wr_data[13]
+ wr_data[14] wr_data[15] wr_data[16] wr_data[17] wr_data[18] wr_data[19] wr_data[1]
+ wr_data[20] wr_data[21] wr_data[22] wr_data[23] wr_data[24] wr_data[25] wr_data[26]
+ wr_data[27] wr_data[28] wr_data[29] wr_data[2] wr_data[30] wr_data[31] wr_data[32]
+ wr_data[33] wr_data[34] wr_data[35] wr_data[36] wr_data[37] wr_data[38] wr_data[39]
+ wr_data[3] wr_data[40] wr_data[41] wr_data[42] wr_data[43] wr_data[44] wr_data[45]
+ wr_data[46] wr_data[47] wr_data[48] wr_data[49] wr_data[4] wr_data[50] wr_data[51]
+ wr_data[52] wr_data[53] wr_data[54] wr_data[55] wr_data[56] wr_data[57] wr_data[58]
+ wr_data[59] wr_data[5] wr_data[60] wr_data[61] wr_data[62] wr_data[63] wr_data[64]
+ wr_data[65] wr_data[66] wr_data[67] wr_data[68] wr_data[69] wr_data[6] wr_data[70]
+ wr_data[71] wr_data[72] wr_data[73] wr_data[74] wr_data[75] wr_data[76] wr_data[77]
+ wr_data[78] wr_data[79] wr_data[7] wr_data[80] wr_data[81] wr_data[82] wr_data[83]
+ wr_data[84] wr_data[85] wr_data[86] wr_data[87] wr_data[88] wr_data[89] wr_data[8]
+ wr_data[90] wr_data[91] wr_data[92] wr_data[93] wr_data[94] wr_data[95] wr_data[96]
+ wr_data[97] wr_data[98] wr_data[99] wr_data[9]
XFILLER_79_391 vssd1 vssd1 vccd1 vccd1 sky130_fd_sc_hd__fill_1
X_2106_ _2149_/CLK _2106_/D vssd1 vssd1 vccd1 vccd1 _2106_/Q sky130_fd_sc_hd__dfxtp_4
X_2037_ _2155_/CLK _2037_/D vssd1 vssd1 vccd1 vccd1 _2037_/Q sky130_fd_sc_hd__dfxtp_2
XANTENNA__1454__A1 input65/X vssd1 vssd1 vccd1 vccd1 sky130_fd_sc_hd__diode_2
XFILLER_82_589 vssd1 vssd1 vccd1 vccd1 sky130_fd_sc_hd__decap_12
XFILLER_63_781 vssd1 vssd1 vccd1 vccd1 sky130_fd_sc_hd__decap_3
XFILLER_35_461 vssd1 vssd1 vccd1 vccd1 sky130_fd_sc_hd__decap_12
XANTENNA__1454__B2 _1453_/X vssd1 vssd1 vccd1 vccd1 sky130_fd_sc_hd__diode_2
XFILLER_52_29 vssd1 vssd1 vccd1 vccd1 sky130_fd_sc_hd__fill_8
XFILLER_50_453 vssd1 vssd1 vccd1 vccd1 sky130_fd_sc_hd__decap_12
XFILLER_50_497 vssd1 vssd1 vccd1 vccd1 sky130_fd_sc_hd__decap_12
XFILLER_136_514 vssd1 vssd1 vccd1 vccd1 sky130_fd_sc_hd__decap_4
XFILLER_136_547 vssd1 vssd1 vccd1 vccd1 sky130_fd_sc_hd__decap_4
XFILLER_108_249 vssd1 vssd1 vccd1 vccd1 sky130_fd_sc_hd__fill_2
XFILLER_117_761 vssd1 vssd1 vccd1 vccd1 sky130_fd_sc_hd__decap_12
XFILLER_2_505 vssd1 vssd1 vccd1 vccd1 sky130_fd_sc_hd__fill_1
XFILLER_117_77 vssd1 vssd1 vccd1 vccd1 sky130_fd_sc_hd__decap_12
XFILLER_104_433 vssd1 vssd1 vccd1 vccd1 sky130_fd_sc_hd__fill_8
XFILLER_104_477 vssd1 vssd1 vccd1 vccd1 sky130_fd_sc_hd__decap_12
XFILLER_89_177 vssd1 vssd1 vccd1 vccd1 sky130_fd_sc_hd__decap_12
XFILLER_77_317 vssd1 vssd1 vccd1 vccd1 sky130_fd_sc_hd__decap_12
XFILLER_133_21 vssd1 vssd1 vccd1 vccd1 sky130_fd_sc_hd__decap_4
XFILLER_92_309 vssd1 vssd1 vccd1 vccd1 sky130_fd_sc_hd__fill_2
XFILLER_85_361 vssd1 vssd1 vccd1 vccd1 sky130_fd_sc_hd__fill_8
XFILLER_73_501 vssd1 vssd1 vccd1 vccd1 sky130_fd_sc_hd__fill_2
XFILLER_58_575 vssd1 vssd1 vccd1 vccd1 sky130_fd_sc_hd__decap_4
XANTENNA__1142__B1 _1958_/S vssd1 vssd1 vccd1 vccd1 sky130_fd_sc_hd__diode_2
XFILLER_18_406 vssd1 vssd1 vccd1 vccd1 sky130_fd_sc_hd__decap_12
X_1647__754 vssd1 vssd1 vccd1 vccd1 _1647__754/HI la_data_out[95] sky130_fd_sc_hd__conb_1
XANTENNA_input127_A la_data_in[59] vssd1 vssd1 vccd1 vccd1 sky130_fd_sc_hd__diode_2
XFILLER_46_737 vssd1 vssd1 vccd1 vccd1 sky130_fd_sc_hd__fill_8
XTAP_1800 vssd1 vccd1 sky130_fd_sc_hd__tapvpwrvgnd_1
XFILLER_93_69 vssd1 vssd1 vccd1 vccd1 sky130_fd_sc_hd__fill_8
XFILLER_45_269 vssd1 vssd1 vccd1 vccd1 sky130_fd_sc_hd__decap_4
XFILLER_45_247 vssd1 vssd1 vccd1 vccd1 sky130_fd_sc_hd__fill_8
XTAP_1833 vssd1 vccd1 sky130_fd_sc_hd__tapvpwrvgnd_1
XTAP_1822 vssd1 vccd1 sky130_fd_sc_hd__tapvpwrvgnd_1
XTAP_1811 vssd1 vccd1 sky130_fd_sc_hd__tapvpwrvgnd_1
XFILLER_61_729 vssd1 vssd1 vccd1 vccd1 sky130_fd_sc_hd__decap_12
XFILLER_60_217 vssd1 vssd1 vccd1 vccd1 sky130_fd_sc_hd__decap_12
XFILLER_54_781 vssd1 vssd1 vccd1 vccd1 sky130_fd_sc_hd__fill_8
XFILLER_14_601 vssd1 vssd1 vccd1 vccd1 sky130_fd_sc_hd__decap_12
XFILLER_26_63 vssd1 vssd1 vccd1 vccd1 sky130_fd_sc_hd__decap_4
XTAP_1866 vssd1 vccd1 sky130_fd_sc_hd__tapvpwrvgnd_1
XTAP_1855 vssd1 vccd1 sky130_fd_sc_hd__tapvpwrvgnd_1
XTAP_1844 vssd1 vccd1 sky130_fd_sc_hd__tapvpwrvgnd_1
XFILLER_13_133 vssd1 vssd1 vccd1 vccd1 sky130_fd_sc_hd__decap_6
XFILLER_14_645 vssd1 vssd1 vccd1 vccd1 sky130_fd_sc_hd__decap_12
XTAP_1899 vssd1 vccd1 sky130_fd_sc_hd__tapvpwrvgnd_1
XTAP_1877 vssd1 vccd1 sky130_fd_sc_hd__tapvpwrvgnd_1
XTAP_1888 vssd1 vccd1 sky130_fd_sc_hd__tapvpwrvgnd_1
XFILLER_13_155 vssd1 vssd1 vccd1 vccd1 sky130_fd_sc_hd__decap_4
XFILLER_14_689 vssd1 vssd1 vccd1 vccd1 sky130_fd_sc_hd__fill_8
XANTENNA_input92_A la_data_in[16] vssd1 vssd1 vccd1 vccd1 sky130_fd_sc_hd__diode_2
XFILLER_42_73 vssd1 vssd1 vccd1 vccd1 sky130_fd_sc_hd__fill_8
XFILLER_9_159 vssd1 vssd1 vccd1 vccd1 sky130_fd_sc_hd__decap_8
XFILLER_5_321 vssd1 vssd1 vccd1 vccd1 sky130_fd_sc_hd__fill_8
XFILLER_6_822 vssd1 vssd1 vccd1 vccd1 sky130_fd_sc_hd__decap_4
XFILLER_123_753 vssd1 vssd1 vccd1 vccd1 sky130_fd_sc_hd__fill_8
XFILLER_122_241 vssd1 vssd1 vccd1 vccd1 sky130_fd_sc_hd__fill_8
XFILLER_107_293 vssd1 vssd1 vccd1 vccd1 sky130_fd_sc_hd__fill_8
XFILLER_123_797 vssd1 vssd1 vccd1 vccd1 sky130_fd_sc_hd__fill_8
XANTENNA__1381__B1 input79/X vssd1 vssd1 vccd1 vccd1 sky130_fd_sc_hd__diode_2
XFILLER_96_637 vssd1 vssd1 vccd1 vccd1 sky130_fd_sc_hd__decap_6
XFILLER_3_23 vssd1 vssd1 vccd1 vccd1 sky130_fd_sc_hd__fill_1
XANTENNA_output346_A _1686_/X vssd1 vssd1 vccd1 vccd1 sky130_fd_sc_hd__diode_2
XFILLER_122_285 vssd1 vssd1 vccd1 vccd1 sky130_fd_sc_hd__decap_12
XFILLER_95_125 vssd1 vssd1 vccd1 vccd1 sky130_fd_sc_hd__fill_8
X_1270_ _1282_/B vssd1 vssd1 vccd1 vccd1 _1270_/Y sky130_fd_sc_hd__inv_2
XANTENNA_output513_A _2062_/Q vssd1 vssd1 vccd1 vccd1 sky130_fd_sc_hd__diode_2
XFILLER_95_169 vssd1 vssd1 vccd1 vccd1 sky130_fd_sc_hd__decap_12
XFILLER_76_361 vssd1 vssd1 vccd1 vccd1 sky130_fd_sc_hd__decap_3
XFILLER_92_821 vssd1 vssd1 vccd1 vccd1 sky130_fd_sc_hd__decap_4
XFILLER_64_545 vssd1 vssd1 vccd1 vccd1 sky130_fd_sc_hd__decap_12
XFILLER_24_409 vssd1 vssd1 vccd1 vccd1 sky130_fd_sc_hd__fill_8
XFILLER_64_589 vssd1 vssd1 vccd1 vccd1 sky130_fd_sc_hd__decap_12
XFILLER_45_781 vssd1 vssd1 vccd1 vccd1 sky130_fd_sc_hd__decap_3
XFILLER_17_461 vssd1 vssd1 vccd1 vccd1 sky130_fd_sc_hd__decap_12
XANTENNA__1436__A1 input83/X vssd1 vssd1 vccd1 vccd1 sky130_fd_sc_hd__diode_2
XFILLER_32_453 vssd1 vssd1 vccd1 vccd1 sky130_fd_sc_hd__fill_8
XFILLER_20_626 vssd1 vssd1 vccd1 vccd1 sky130_fd_sc_hd__decap_12
XFILLER_32_497 vssd1 vssd1 vccd1 vccd1 sky130_fd_sc_hd__decap_8
X_0985_ _0985_/A _0993_/B vssd1 vssd1 vccd1 vccd1 _0986_/A sky130_fd_sc_hd__and2_1
XFILLER_9_693 vssd1 vssd1 vccd1 vccd1 sky130_fd_sc_hd__decap_12
XFILLER_133_517 vssd1 vssd1 vccd1 vccd1 sky130_fd_sc_hd__fill_8
XFILLER_105_208 vssd1 vssd1 vccd1 vccd1 sky130_fd_sc_hd__decap_12
Xoutput401 _1726_/X vssd1 vssd1 vccd1 vccd1 data_to_core_mem[26] sky130_fd_sc_hd__buf_2
XFILLER_8_192 vssd1 vssd1 vccd1 vccd1 sky130_fd_sc_hd__decap_4
Xoutput434 _1999_/X vssd1 vssd1 vccd1 vccd1 din0_to_sram[27] sky130_fd_sc_hd__buf_2
XANTENNA__1057__C _1757_/A vssd1 vssd1 vccd1 vccd1 sky130_fd_sc_hd__diode_2
Xoutput423 _1959_/X vssd1 vssd1 vccd1 vccd1 din0_to_sram[17] sky130_fd_sc_hd__buf_2
Xoutput412 _1707_/X vssd1 vssd1 vccd1 vccd1 data_to_core_mem[7] sky130_fd_sc_hd__buf_2
Xoutput456 _2126_/Q vssd1 vssd1 vccd1 vccd1 rd_data_out[104] sky130_fd_sc_hd__buf_2
Xoutput478 _2146_/Q vssd1 vssd1 vccd1 vccd1 rd_data_out[124] sky130_fd_sc_hd__buf_2
XFILLER_114_753 vssd1 vssd1 vccd1 vccd1 sky130_fd_sc_hd__decap_3
Xoutput467 _2136_/Q vssd1 vssd1 vccd1 vccd1 rd_data_out[114] sky130_fd_sc_hd__buf_2
Xoutput445 _1923_/X vssd1 vssd1 vccd1 vccd1 din0_to_sram[8] sky130_fd_sc_hd__buf_2