* NGSPICE file created from io_input_arbiter.ext - technology: sky130A

* Black-box entry subcircuit for sky130_fd_sc_hd__decap_4 abstract view
.subckt sky130_fd_sc_hd__decap_4 VGND VNB VPB VPWR
.ends

* Black-box entry subcircuit for sky130_fd_sc_hd__decap_12 abstract view
.subckt sky130_fd_sc_hd__decap_12 VGND VNB VPB VPWR
.ends

* Black-box entry subcircuit for sky130_fd_sc_hd__clkbuf_1 abstract view
.subckt sky130_fd_sc_hd__clkbuf_1 A VGND VNB VPB VPWR X
.ends

* Black-box entry subcircuit for sky130_fd_sc_hd__decap_6 abstract view
.subckt sky130_fd_sc_hd__decap_6 VGND VNB VPB VPWR
.ends

* Black-box entry subcircuit for sky130_fd_sc_hd__and3_1 abstract view
.subckt sky130_fd_sc_hd__and3_1 A B C VGND VNB VPB VPWR X
.ends

* Black-box entry subcircuit for sky130_fd_sc_hd__diode_2 abstract view
.subckt sky130_fd_sc_hd__diode_2 DIODE VGND VNB VPB VPWR
.ends

* Black-box entry subcircuit for sky130_fd_sc_hd__buf_2 abstract view
.subckt sky130_fd_sc_hd__buf_2 A VGND VNB VPB VPWR X
.ends

* Black-box entry subcircuit for sky130_fd_sc_hd__fill_1 abstract view
.subckt sky130_fd_sc_hd__fill_1 VGND VNB VPB VPWR
.ends

* Black-box entry subcircuit for sky130_fd_sc_hd__decap_8 abstract view
.subckt sky130_fd_sc_hd__decap_8 VGND VNB VPB VPWR
.ends

* Black-box entry subcircuit for sky130_fd_sc_hd__a211o_1 abstract view
.subckt sky130_fd_sc_hd__a211o_1 A1 A2 B1 C1 VGND VNB VPB VPWR X
.ends

* Black-box entry subcircuit for sky130_fd_sc_hd__fill_2 abstract view
.subckt sky130_fd_sc_hd__fill_2 VGND VNB VPB VPWR
.ends

* Black-box entry subcircuit for sky130_fd_sc_hd__decap_3 abstract view
.subckt sky130_fd_sc_hd__decap_3 VGND VNB VPB VPWR
.ends

* Black-box entry subcircuit for sky130_fd_sc_hd__and2_1 abstract view
.subckt sky130_fd_sc_hd__and2_1 A B VGND VNB VPB VPWR X
.ends

* Black-box entry subcircuit for sky130_fd_sc_hd__inv_2 abstract view
.subckt sky130_fd_sc_hd__inv_2 A VGND VNB VPB VPWR Y
.ends

* Black-box entry subcircuit for sky130_fd_sc_hd__dfxtp_4 abstract view
.subckt sky130_fd_sc_hd__dfxtp_4 CLK D VGND VNB VPB VPWR Q
.ends

* Black-box entry subcircuit for sky130_fd_sc_hd__nor2_1 abstract view
.subckt sky130_fd_sc_hd__nor2_1 A B VGND VNB VPB VPWR Y
.ends

* Black-box entry subcircuit for sky130_fd_sc_hd__clkbuf_16 abstract view
.subckt sky130_fd_sc_hd__clkbuf_16 A VGND VNB VPB VPWR X
.ends

* Black-box entry subcircuit for sky130_fd_sc_hd__buf_8 abstract view
.subckt sky130_fd_sc_hd__buf_8 A VGND VNB VPB VPWR X
.ends

* Black-box entry subcircuit for sky130_fd_sc_hd__tapvpwrvgnd_1 abstract view
.subckt sky130_fd_sc_hd__tapvpwrvgnd_1 VGND VPWR
.ends

* Black-box entry subcircuit for sky130_fd_sc_hd__dfxtp_1 abstract view
.subckt sky130_fd_sc_hd__dfxtp_1 CLK D VGND VNB VPB VPWR Q
.ends

* Black-box entry subcircuit for sky130_fd_sc_hd__a22oi_1 abstract view
.subckt sky130_fd_sc_hd__a22oi_1 A1 A2 B1 B2 VGND VNB VPB VPWR Y
.ends

* Black-box entry subcircuit for sky130_fd_sc_hd__clkbuf_2 abstract view
.subckt sky130_fd_sc_hd__clkbuf_2 A VGND VNB VPB VPWR X
.ends

.subckt io_input_arbiter clk data_out[0] data_out[10] data_out[11] data_out[12] data_out[13]
+ data_out[14] data_out[15] data_out[16] data_out[17] data_out[18] data_out[19] data_out[1]
+ data_out[20] data_out[21] data_out[22] data_out[23] data_out[24] data_out[25] data_out[26]
+ data_out[27] data_out[28] data_out[29] data_out[2] data_out[30] data_out[31] data_out[3]
+ data_out[4] data_out[5] data_out[6] data_out[7] data_out[8] data_out[9] is_ready_core0
+ read_enable read_value[0] read_value[10] read_value[11] read_value[12] read_value[13]
+ read_value[14] read_value[15] read_value[16] read_value[17] read_value[18] read_value[19]
+ read_value[1] read_value[20] read_value[21] read_value[22] read_value[23] read_value[24]
+ read_value[25] read_value[26] read_value[27] read_value[28] read_value[29] read_value[2]
+ read_value[30] read_value[31] read_value[3] read_value[4] read_value[5] read_value[6]
+ read_value[7] read_value[8] read_value[9] req_core0 reset vccd1 vssd1
XFILLER_3_23 vssd1 vssd1 vccd1 vccd1 sky130_fd_sc_hd__decap_4
XFILLER_12_32 vssd1 vssd1 vccd1 vccd1 sky130_fd_sc_hd__decap_12
XFILLER_6_107 vssd1 vssd1 vccd1 vccd1 sky130_fd_sc_hd__decap_12
X_062_ _062_/A vssd1 vssd1 vccd1 vccd1 _062_/X sky130_fd_sc_hd__clkbuf_1
XFILLER_0_68 vssd1 vssd1 vccd1 vccd1 sky130_fd_sc_hd__decap_4
XFILLER_2_110 vssd1 vssd1 vccd1 vccd1 sky130_fd_sc_hd__decap_4
XFILLER_2_132 vssd1 vssd1 vccd1 vccd1 sky130_fd_sc_hd__decap_4
XFILLER_9_33 vssd1 vssd1 vccd1 vccd1 sky130_fd_sc_hd__decap_4
XFILLER_18_97 vssd1 vssd1 vccd1 vccd1 sky130_fd_sc_hd__decap_6
XFILLER_18_64 vssd1 vssd1 vccd1 vccd1 sky130_fd_sc_hd__decap_4
X_045_ _110_/Q _107_/B _045_/C vssd1 vssd1 vccd1 vccd1 _046_/A sky130_fd_sc_hd__and3_1
XANTENNA_input18_A read_value[24] vssd1 vssd1 vccd1 vccd1 sky130_fd_sc_hd__diode_2
XFILLER_6_34 vssd1 vssd1 vccd1 vccd1 sky130_fd_sc_hd__decap_4
XFILLER_15_87 vssd1 vssd1 vccd1 vccd1 sky130_fd_sc_hd__decap_4
XANTENNA__042__A _110_/Q vssd1 vssd1 vccd1 vccd1 sky130_fd_sc_hd__diode_2
XFILLER_16_120 vssd1 vssd1 vccd1 vccd1 sky130_fd_sc_hd__decap_4
Xoutput53 _096_/X vssd1 vssd1 vccd1 vccd1 data_out[25] sky130_fd_sc_hd__buf_2
Xoutput42 _076_/X vssd1 vssd1 vccd1 vccd1 data_out[15] sky130_fd_sc_hd__buf_2
Xoutput64 _058_/X vssd1 vssd1 vccd1 vccd1 data_out[6] sky130_fd_sc_hd__buf_2
XFILLER_13_123 vssd1 vssd1 vccd1 vccd1 sky130_fd_sc_hd__decap_6
XFILLER_9_105 vssd1 vssd1 vccd1 vccd1 sky130_fd_sc_hd__decap_6
XFILLER_9_127 vssd1 vssd1 vccd1 vccd1 sky130_fd_sc_hd__fill_1
XFILLER_12_88 vssd1 vssd1 vccd1 vccd1 sky130_fd_sc_hd__decap_4
XFILLER_12_44 vssd1 vssd1 vccd1 vccd1 sky130_fd_sc_hd__decap_8
XFILLER_6_119 vssd1 vssd1 vccd1 vccd1 sky130_fd_sc_hd__decap_4
XFILLER_0_47 vssd1 vssd1 vccd1 vccd1 sky130_fd_sc_hd__decap_8
X_061_ _110_/Q _107_/B _061_/C vssd1 vssd1 vccd1 vccd1 _062_/A sky130_fd_sc_hd__and3_1
XANTENNA__045__A _110_/Q vssd1 vssd1 vccd1 vccd1 sky130_fd_sc_hd__diode_2
X_044_ _041_/Y _109_/Q _040_/A _043_/X vssd1 vssd1 vccd1 vccd1 _109_/D sky130_fd_sc_hd__a211o_1
XFILLER_15_7 vssd1 vssd1 vccd1 vccd1 sky130_fd_sc_hd__decap_6
XFILLER_6_13 vssd1 vssd1 vccd1 vccd1 sky130_fd_sc_hd__decap_4
XANTENNA__042__B _107_/B vssd1 vssd1 vccd1 vccd1 sky130_fd_sc_hd__diode_2
XFILLER_15_99 vssd1 vssd1 vccd1 vccd1 sky130_fd_sc_hd__fill_1
Xoutput54 _098_/X vssd1 vssd1 vccd1 vccd1 data_out[26] sky130_fd_sc_hd__buf_2
Xoutput43 _078_/X vssd1 vssd1 vccd1 vccd1 data_out[16] sky130_fd_sc_hd__buf_2
XANTENNA_input30_A read_value[6] vssd1 vssd1 vccd1 vccd1 sky130_fd_sc_hd__diode_2
Xoutput65 _060_/X vssd1 vssd1 vccd1 vccd1 data_out[7] sky130_fd_sc_hd__buf_2
XFILLER_13_113 vssd1 vssd1 vccd1 vccd1 sky130_fd_sc_hd__decap_4
XFILLER_13_102 vssd1 vssd1 vccd1 vccd1 sky130_fd_sc_hd__decap_4
XANTENNA__053__A _110_/Q vssd1 vssd1 vccd1 vccd1 sky130_fd_sc_hd__diode_2
XFILLER_3_14 vssd1 vssd1 vccd1 vccd1 sky130_fd_sc_hd__decap_6
XFILLER_10_105 vssd1 vssd1 vccd1 vccd1 sky130_fd_sc_hd__fill_1
XFILLER_10_116 vssd1 vssd1 vccd1 vccd1 sky130_fd_sc_hd__decap_4
XFILLER_0_15 vssd1 vssd1 vccd1 vccd1 sky130_fd_sc_hd__decap_4
X_060_ _060_/A vssd1 vssd1 vccd1 vccd1 _060_/X sky130_fd_sc_hd__clkbuf_1
XFILLER_9_24 vssd1 vssd1 vccd1 vccd1 sky130_fd_sc_hd__decap_4
XFILLER_18_44 vssd1 vssd1 vccd1 vccd1 sky130_fd_sc_hd__decap_4
XFILLER_18_11 vssd1 vssd1 vccd1 vccd1 sky130_fd_sc_hd__fill_1
X_043_ _043_/A vssd1 vssd1 vccd1 vccd1 _043_/X sky130_fd_sc_hd__clkbuf_1
XANTENNA__045__B _107_/B vssd1 vssd1 vccd1 vccd1 sky130_fd_sc_hd__diode_2
XANTENNA__061__A _110_/Q vssd1 vssd1 vccd1 vccd1 sky130_fd_sc_hd__diode_2
XFILLER_1_91 vssd1 vssd1 vccd1 vccd1 sky130_fd_sc_hd__decap_8
XFILLER_1_80 vssd1 vssd1 vccd1 vccd1 sky130_fd_sc_hd__decap_8
Xoutput66 _062_/X vssd1 vssd1 vccd1 vccd1 data_out[8] sky130_fd_sc_hd__buf_2
Xoutput44 _080_/X vssd1 vssd1 vccd1 vccd1 data_out[17] sky130_fd_sc_hd__buf_2
Xoutput55 _100_/X vssd1 vssd1 vccd1 vccd1 data_out[27] sky130_fd_sc_hd__buf_2
XANTENNA_input23_A read_value[29] vssd1 vssd1 vccd1 vccd1 sky130_fd_sc_hd__diode_2
XANTENNA__053__B _107_/B vssd1 vssd1 vccd1 vccd1 sky130_fd_sc_hd__diode_2
XFILLER_3_59 vssd1 vssd1 vccd1 vccd1 sky130_fd_sc_hd__decap_4
XFILLER_12_57 vssd1 vssd1 vccd1 vccd1 sky130_fd_sc_hd__decap_12
XFILLER_12_24 vssd1 vssd1 vccd1 vccd1 sky130_fd_sc_hd__decap_4
XFILLER_5_7 vssd1 vssd1 vccd1 vccd1 sky130_fd_sc_hd__decap_4
XFILLER_10_128 vssd1 vssd1 vccd1 vccd1 sky130_fd_sc_hd__fill_1
XFILLER_5_110 vssd1 vssd1 vccd1 vccd1 sky130_fd_sc_hd__fill_2
XFILLER_0_27 vssd1 vssd1 vccd1 vccd1 sky130_fd_sc_hd__fill_1
XFILLER_2_124 vssd1 vssd1 vccd1 vccd1 sky130_fd_sc_hd__decap_4
XANTENNA__059__A _110_/Q vssd1 vssd1 vccd1 vccd1 sky130_fd_sc_hd__diode_2
XFILLER_9_47 vssd1 vssd1 vccd1 vccd1 sky130_fd_sc_hd__decap_3
XFILLER_18_89 vssd1 vssd1 vccd1 vccd1 sky130_fd_sc_hd__decap_4
XANTENNA__061__B _107_/B vssd1 vssd1 vccd1 vccd1 sky130_fd_sc_hd__diode_2
X_042_ _110_/Q _107_/B vssd1 vssd1 vccd1 vccd1 _043_/A sky130_fd_sc_hd__and2_1
XFILLER_6_48 vssd1 vssd1 vccd1 vccd1 sky130_fd_sc_hd__decap_4
Xoutput56 _102_/X vssd1 vssd1 vccd1 vccd1 data_out[28] sky130_fd_sc_hd__buf_2
XFILLER_15_46 vssd1 vssd1 vccd1 vccd1 sky130_fd_sc_hd__decap_4
XFILLER_15_24 vssd1 vssd1 vccd1 vccd1 sky130_fd_sc_hd__decap_4
XFILLER_15_13 vssd1 vssd1 vccd1 vccd1 sky130_fd_sc_hd__fill_1
Xoutput45 _082_/X vssd1 vssd1 vccd1 vccd1 data_out[18] sky130_fd_sc_hd__buf_2
Xoutput67 _064_/X vssd1 vssd1 vccd1 vccd1 data_out[9] sky130_fd_sc_hd__buf_2
XANTENNA__067__A _110_/Q vssd1 vssd1 vccd1 vccd1 sky130_fd_sc_hd__diode_2
XANTENNA_input16_A read_value[22] vssd1 vssd1 vccd1 vccd1 sky130_fd_sc_hd__diode_2
XFILLER_11_3 vssd1 vssd1 vccd1 vccd1 sky130_fd_sc_hd__fill_1
XANTENNA_input8_A read_value[15] vssd1 vssd1 vccd1 vccd1 sky130_fd_sc_hd__diode_2
XFILLER_3_38 vssd1 vssd1 vccd1 vccd1 sky130_fd_sc_hd__decap_4
XFILLER_9_119 vssd1 vssd1 vccd1 vccd1 sky130_fd_sc_hd__decap_8
XFILLER_12_69 vssd1 vssd1 vccd1 vccd1 sky130_fd_sc_hd__decap_12
XANTENNA__075__A _110_/Q vssd1 vssd1 vccd1 vccd1 sky130_fd_sc_hd__diode_2
XFILLER_2_103 vssd1 vssd1 vccd1 vccd1 sky130_fd_sc_hd__decap_4
XANTENNA__059__B _107_/B vssd1 vssd1 vccd1 vccd1 sky130_fd_sc_hd__diode_2
XFILLER_4_81 vssd1 vssd1 vccd1 vccd1 sky130_fd_sc_hd__decap_3
XFILLER_18_79 vssd1 vssd1 vccd1 vccd1 sky130_fd_sc_hd__decap_4
XFILLER_18_57 vssd1 vssd1 vccd1 vccd1 sky130_fd_sc_hd__fill_2
XFILLER_18_35 vssd1 vssd1 vccd1 vccd1 sky130_fd_sc_hd__decap_4
XFILLER_18_24 vssd1 vssd1 vccd1 vccd1 sky130_fd_sc_hd__decap_4
X_041_ _041_/A vssd1 vssd1 vccd1 vccd1 _041_/Y sky130_fd_sc_hd__inv_2
X_110_ _110_/CLK _110_/D vssd1 vssd1 vccd1 vccd1 _110_/Q sky130_fd_sc_hd__dfxtp_4
XFILLER_13_7 vssd1 vssd1 vccd1 vccd1 sky130_fd_sc_hd__decap_4
XANTENNA_clkbuf_0_clk_A clk vssd1 vssd1 vccd1 vccd1 sky130_fd_sc_hd__diode_2
XFILLER_6_27 vssd1 vssd1 vccd1 vccd1 sky130_fd_sc_hd__fill_1
Xoutput46 _084_/X vssd1 vssd1 vccd1 vccd1 data_out[19] sky130_fd_sc_hd__buf_2
Xoutput57 _104_/X vssd1 vssd1 vccd1 vccd1 data_out[29] sky130_fd_sc_hd__buf_2
XANTENNA__083__A _110_/Q vssd1 vssd1 vccd1 vccd1 sky130_fd_sc_hd__diode_2
XFILLER_15_69 vssd1 vssd1 vccd1 vccd1 sky130_fd_sc_hd__decap_4
XFILLER_15_36 vssd1 vssd1 vccd1 vccd1 sky130_fd_sc_hd__decap_8
XANTENNA__067__B _107_/B vssd1 vssd1 vccd1 vccd1 sky130_fd_sc_hd__diode_2
Xoutput68 _043_/X vssd1 vssd1 vccd1 vccd1 is_ready_core0 sky130_fd_sc_hd__buf_2
XFILLER_16_135 vssd1 vssd1 vccd1 vccd1 sky130_fd_sc_hd__fill_1
XFILLER_16_113 vssd1 vssd1 vccd1 vccd1 sky130_fd_sc_hd__decap_4
XFILLER_7_81 vssd1 vssd1 vccd1 vccd1 sky130_fd_sc_hd__decap_12
XFILLER_12_15 vssd1 vssd1 vccd1 vccd1 sky130_fd_sc_hd__decap_4
XFILLER_10_108 vssd1 vssd1 vccd1 vccd1 sky130_fd_sc_hd__decap_6
XANTENNA__091__A _110_/Q vssd1 vssd1 vccd1 vccd1 sky130_fd_sc_hd__diode_2
XANTENNA__075__B _107_/B vssd1 vssd1 vccd1 vccd1 sky130_fd_sc_hd__diode_2
XFILLER_3_6 vssd1 vssd1 vccd1 vccd1 sky130_fd_sc_hd__decap_4
X_040_ _040_/A _040_/B vssd1 vssd1 vccd1 vccd1 _110_/D sky130_fd_sc_hd__nor2_1
XFILLER_10_70 vssd1 vssd1 vccd1 vccd1 sky130_fd_sc_hd__decap_12
XANTENNA__083__B _107_/B vssd1 vssd1 vccd1 vccd1 sky130_fd_sc_hd__diode_2
Xoutput47 _048_/X vssd1 vssd1 vccd1 vccd1 data_out[1] sky130_fd_sc_hd__buf_2
Xoutput36 _046_/X vssd1 vssd1 vccd1 vccd1 data_out[0] sky130_fd_sc_hd__buf_2
Xoutput58 _050_/X vssd1 vssd1 vccd1 vccd1 data_out[2] sky130_fd_sc_hd__buf_2
XPHY_0 vssd1 vssd1 vccd1 vccd1 sky130_fd_sc_hd__decap_3
XFILLER_7_93 vssd1 vssd1 vccd1 vccd1 sky130_fd_sc_hd__decap_8
XFILLER_13_117 vssd1 vssd1 vccd1 vccd1 sky130_fd_sc_hd__fill_1
XANTENNA_input21_A read_value[27] vssd1 vssd1 vccd1 vccd1 sky130_fd_sc_hd__diode_2
XANTENNA__089__A _110_/Q vssd1 vssd1 vccd1 vccd1 sky130_fd_sc_hd__diode_2
XFILLER_5_102 vssd1 vssd1 vccd1 vccd1 sky130_fd_sc_hd__decap_8
XFILLER_5_113 vssd1 vssd1 vccd1 vccd1 sky130_fd_sc_hd__decap_12
XFILLER_4_61 vssd1 vssd1 vccd1 vccd1 sky130_fd_sc_hd__decap_12
XFILLER_4_94 vssd1 vssd1 vccd1 vccd1 sky130_fd_sc_hd__fill_1
XANTENNA__091__B _107_/B vssd1 vssd1 vccd1 vccd1 sky130_fd_sc_hd__diode_2
XFILLER_9_39 vssd1 vssd1 vccd1 vccd1 sky130_fd_sc_hd__decap_8
XFILLER_18_48 vssd1 vssd1 vccd1 vccd1 sky130_fd_sc_hd__fill_1
X_099_ _110_/Q _107_/B _099_/C vssd1 vssd1 vccd1 vccd1 _100_/A sky130_fd_sc_hd__and3_1
XFILLER_1_73 vssd1 vssd1 vccd1 vccd1 sky130_fd_sc_hd__decap_4
XANTENNA__097__A _110_/Q vssd1 vssd1 vccd1 vccd1 sky130_fd_sc_hd__diode_2
XFILLER_10_82 vssd1 vssd1 vccd1 vccd1 sky130_fd_sc_hd__fill_2
Xoutput48 _086_/X vssd1 vssd1 vccd1 vccd1 data_out[20] sky130_fd_sc_hd__buf_2
Xoutput37 _066_/X vssd1 vssd1 vccd1 vccd1 data_out[10] sky130_fd_sc_hd__buf_2
Xoutput59 _106_/X vssd1 vssd1 vccd1 vccd1 data_out[30] sky130_fd_sc_hd__buf_2
XPHY_1 vssd1 vssd1 vccd1 vccd1 sky130_fd_sc_hd__decap_3
XANTENNA_input14_A read_value[20] vssd1 vssd1 vccd1 vccd1 sky130_fd_sc_hd__diode_2
XFILLER_8_111 vssd1 vssd1 vccd1 vccd1 sky130_fd_sc_hd__decap_6
XANTENNA__089__B _107_/B vssd1 vssd1 vccd1 vccd1 sky130_fd_sc_hd__diode_2
XANTENNA_input6_A read_value[13] vssd1 vssd1 vccd1 vccd1 sky130_fd_sc_hd__diode_2
XFILLER_4_73 vssd1 vssd1 vccd1 vccd1 sky130_fd_sc_hd__decap_8
XFILLER_2_117 vssd1 vssd1 vccd1 vccd1 sky130_fd_sc_hd__decap_4
XFILLER_18_16 vssd1 vssd1 vccd1 vccd1 sky130_fd_sc_hd__decap_4
X_098_ _098_/A vssd1 vssd1 vccd1 vccd1 _098_/X sky130_fd_sc_hd__clkbuf_1
XFILLER_1_41 vssd1 vssd1 vccd1 vccd1 sky130_fd_sc_hd__decap_4
XANTENNA__097__B _107_/B vssd1 vssd1 vccd1 vccd1 sky130_fd_sc_hd__diode_2
XFILLER_6_19 vssd1 vssd1 vccd1 vccd1 sky130_fd_sc_hd__decap_8
XFILLER_10_50 vssd1 vssd1 vccd1 vccd1 sky130_fd_sc_hd__decap_3
XFILLER_10_61 vssd1 vssd1 vccd1 vccd1 sky130_fd_sc_hd__decap_6
Xoutput49 _088_/X vssd1 vssd1 vccd1 vccd1 data_out[21] sky130_fd_sc_hd__buf_2
XFILLER_15_17 vssd1 vssd1 vccd1 vccd1 sky130_fd_sc_hd__decap_4
Xoutput38 _068_/X vssd1 vssd1 vccd1 vccd1 data_out[11] sky130_fd_sc_hd__buf_2
XPHY_2 vssd1 vssd1 vccd1 vccd1 sky130_fd_sc_hd__decap_3
Xclkbuf_0_clk clk vssd1 vssd1 vccd1 vccd1 clkbuf_0_clk/X sky130_fd_sc_hd__clkbuf_16
XFILLER_13_108 vssd1 vssd1 vccd1 vccd1 sky130_fd_sc_hd__decap_4
XFILLER_7_40 vssd1 vssd1 vccd1 vccd1 sky130_fd_sc_hd__decap_12
XFILLER_16_71 vssd1 vssd1 vccd1 vccd1 sky130_fd_sc_hd__decap_4
XFILLER_2_107 vssd1 vssd1 vccd1 vccd1 sky130_fd_sc_hd__fill_1
XFILLER_13_83 vssd1 vssd1 vccd1 vccd1 sky130_fd_sc_hd__decap_4
XFILLER_18_39 vssd1 vssd1 vccd1 vccd1 sky130_fd_sc_hd__fill_1
X_097_ _110_/Q _107_/B _097_/C vssd1 vssd1 vccd1 vccd1 _098_/A sky130_fd_sc_hd__and3_1
XFILLER_1_64 vssd1 vssd1 vccd1 vccd1 sky130_fd_sc_hd__decap_4
XFILLER_1_31 vssd1 vssd1 vccd1 vccd1 sky130_fd_sc_hd__decap_6
Xoutput39 _070_/X vssd1 vssd1 vccd1 vccd1 data_out[12] sky130_fd_sc_hd__buf_2
XFILLER_16_106 vssd1 vssd1 vccd1 vccd1 sky130_fd_sc_hd__decap_4
XPHY_3 vssd1 vssd1 vccd1 vccd1 sky130_fd_sc_hd__decap_3
XFILLER_7_52 vssd1 vssd1 vccd1 vccd1 sky130_fd_sc_hd__decap_4
XFILLER_16_83 vssd1 vssd1 vccd1 vccd1 sky130_fd_sc_hd__fill_1
XFILLER_8_102 vssd1 vssd1 vccd1 vccd1 sky130_fd_sc_hd__decap_4
XFILLER_4_20 vssd1 vssd1 vccd1 vccd1 sky130_fd_sc_hd__decap_8
XFILLER_4_31 vssd1 vssd1 vccd1 vccd1 sky130_fd_sc_hd__decap_4
XFILLER_4_97 vssd1 vssd1 vccd1 vccd1 sky130_fd_sc_hd__decap_12
XFILLER_18_29 vssd1 vssd1 vccd1 vccd1 sky130_fd_sc_hd__fill_2
XFILLER_1_7 vssd1 vssd1 vccd1 vccd1 sky130_fd_sc_hd__decap_4
X_096_ _096_/A vssd1 vssd1 vccd1 vccd1 _096_/X sky130_fd_sc_hd__clkbuf_1
XFILLER_10_85 vssd1 vssd1 vccd1 vccd1 sky130_fd_sc_hd__decap_12
X_079_ _110_/Q _107_/B _079_/C vssd1 vssd1 vccd1 vccd1 _080_/A sky130_fd_sc_hd__and3_1
XFILLER_16_129 vssd1 vssd1 vccd1 vccd1 sky130_fd_sc_hd__decap_6
XPHY_4 vssd1 vssd1 vccd1 vccd1 sky130_fd_sc_hd__decap_3
XANTENNA__103__A _110_/Q vssd1 vssd1 vccd1 vccd1 sky130_fd_sc_hd__diode_2
XFILLER_12_132 vssd1 vssd1 vccd1 vccd1 sky130_fd_sc_hd__decap_4
XANTENNA_input12_A read_value[19] vssd1 vssd1 vccd1 vccd1 sky130_fd_sc_hd__diode_2
XFILLER_5_128 vssd1 vssd1 vccd1 vccd1 sky130_fd_sc_hd__decap_8
XFILLER_4_43 vssd1 vssd1 vccd1 vccd1 sky130_fd_sc_hd__decap_4
XFILLER_13_96 vssd1 vssd1 vccd1 vccd1 sky130_fd_sc_hd__decap_4
XANTENNA_input4_A read_value[11] vssd1 vssd1 vccd1 vccd1 sky130_fd_sc_hd__diode_2
X_095_ _110_/Q _107_/B _095_/C vssd1 vssd1 vccd1 vccd1 _096_/A sky130_fd_sc_hd__and3_1
XFILLER_1_99 vssd1 vssd1 vccd1 vccd1 sky130_fd_sc_hd__fill_1
XFILLER_1_11 vssd1 vssd1 vccd1 vccd1 sky130_fd_sc_hd__fill_1
XFILLER_10_97 vssd1 vssd1 vccd1 vccd1 sky130_fd_sc_hd__fill_2
X_078_ _078_/A vssd1 vssd1 vccd1 vccd1 _078_/X sky130_fd_sc_hd__clkbuf_1
XPHY_5 vssd1 vssd1 vccd1 vccd1 sky130_fd_sc_hd__decap_3
XFILLER_7_21 vssd1 vssd1 vccd1 vccd1 sky130_fd_sc_hd__decap_4
XANTENNA__103__B _107_/B vssd1 vssd1 vccd1 vccd1 sky130_fd_sc_hd__diode_2
XFILLER_4_88 vssd1 vssd1 vccd1 vccd1 sky130_fd_sc_hd__decap_6
XFILLER_13_53 vssd1 vssd1 vccd1 vccd1 sky130_fd_sc_hd__decap_3
XFILLER_1_132 vssd1 vssd1 vccd1 vccd1 sky130_fd_sc_hd__decap_4
X_094_ _094_/A vssd1 vssd1 vccd1 vccd1 _094_/X sky130_fd_sc_hd__clkbuf_1
XFILLER_10_32 vssd1 vssd1 vccd1 vccd1 sky130_fd_sc_hd__decap_4
X_077_ _110_/Q _107_/B _077_/C vssd1 vssd1 vccd1 vccd1 _078_/A sky130_fd_sc_hd__and3_1
XPHY_6 vssd1 vssd1 vccd1 vccd1 sky130_fd_sc_hd__decap_3
XANTENNA_input35_A reset vssd1 vssd1 vccd1 vccd1 sky130_fd_sc_hd__diode_2
XFILLER_16_64 vssd1 vssd1 vccd1 vccd1 sky130_fd_sc_hd__decap_4
XFILLER_16_42 vssd1 vssd1 vccd1 vccd1 sky130_fd_sc_hd__decap_4
XFILLER_16_31 vssd1 vssd1 vccd1 vccd1 sky130_fd_sc_hd__decap_8
XFILLER_12_112 vssd1 vssd1 vccd1 vccd1 sky130_fd_sc_hd__decap_4
XFILLER_13_21 vssd1 vssd1 vccd1 vccd1 sky130_fd_sc_hd__decap_4
XFILLER_1_111 vssd1 vssd1 vccd1 vccd1 sky130_fd_sc_hd__fill_1
X_093_ _110_/Q _107_/B _093_/C vssd1 vssd1 vccd1 vccd1 _094_/A sky130_fd_sc_hd__and3_1
XFILLER_1_57 vssd1 vssd1 vccd1 vccd1 sky130_fd_sc_hd__fill_2
XFILLER_1_24 vssd1 vssd1 vccd1 vccd1 sky130_fd_sc_hd__decap_4
Xinput1 read_enable vssd1 vssd1 vccd1 vccd1 _107_/B sky130_fd_sc_hd__buf_8
XFILLER_10_55 vssd1 vssd1 vccd1 vccd1 sky130_fd_sc_hd__decap_4
X_076_ _076_/A vssd1 vssd1 vccd1 vccd1 _076_/X sky130_fd_sc_hd__clkbuf_1
XFILLER_15_132 vssd1 vssd1 vccd1 vccd1 sky130_fd_sc_hd__decap_4
XANTENNA_input28_A read_value[4] vssd1 vssd1 vccd1 vccd1 sky130_fd_sc_hd__diode_2
XPHY_7 vssd1 vssd1 vccd1 vccd1 sky130_fd_sc_hd__decap_3
X_059_ _110_/Q _107_/B _059_/C vssd1 vssd1 vccd1 vccd1 _060_/A sky130_fd_sc_hd__and3_1
XFILLER_7_34 vssd1 vssd1 vccd1 vccd1 sky130_fd_sc_hd__decap_4
XFILLER_16_21 vssd1 vssd1 vccd1 vccd1 sky130_fd_sc_hd__decap_6
XFILLER_12_124 vssd1 vssd1 vccd1 vccd1 sky130_fd_sc_hd__decap_4
XFILLER_8_128 vssd1 vssd1 vccd1 vccd1 sky130_fd_sc_hd__decap_8
XANTENNA__038__A _107_/B vssd1 vssd1 vccd1 vccd1 sky130_fd_sc_hd__diode_2
XFILLER_4_120 vssd1 vssd1 vccd1 vccd1 sky130_fd_sc_hd__decap_4
XFILLER_13_33 vssd1 vssd1 vccd1 vccd1 sky130_fd_sc_hd__decap_12
XANTENNA_input10_A read_value[17] vssd1 vssd1 vccd1 vccd1 sky130_fd_sc_hd__diode_2
XANTENNA__051__A _110_/Q vssd1 vssd1 vccd1 vccd1 sky130_fd_sc_hd__diode_2
XANTENNA_input2_A read_value[0] vssd1 vssd1 vccd1 vccd1 sky130_fd_sc_hd__diode_2
X_092_ _092_/A vssd1 vssd1 vccd1 vccd1 _092_/X sky130_fd_sc_hd__clkbuf_1
Xinput2 read_value[0] vssd1 vssd1 vccd1 vccd1 _045_/C sky130_fd_sc_hd__clkbuf_1
X_075_ _110_/Q _107_/B _075_/C vssd1 vssd1 vccd1 vccd1 _076_/A sky130_fd_sc_hd__and3_1
X_058_ _058_/A vssd1 vssd1 vccd1 vccd1 _058_/X sky130_fd_sc_hd__clkbuf_1
XPHY_8 vssd1 vssd1 vccd1 vccd1 sky130_fd_sc_hd__decap_3
XFILLER_7_57 vssd1 vssd1 vccd1 vccd1 sky130_fd_sc_hd__decap_12
XFILLER_16_99 vssd1 vssd1 vccd1 vccd1 sky130_fd_sc_hd__decap_4
XFILLER_16_88 vssd1 vssd1 vccd1 vccd1 sky130_fd_sc_hd__decap_8
XFILLER_16_77 vssd1 vssd1 vccd1 vccd1 sky130_fd_sc_hd__decap_6
XFILLER_12_103 vssd1 vssd1 vccd1 vccd1 sky130_fd_sc_hd__decap_6
XFILLER_4_14 vssd1 vssd1 vccd1 vccd1 sky130_fd_sc_hd__decap_4
XFILLER_13_89 vssd1 vssd1 vccd1 vccd1 sky130_fd_sc_hd__decap_4
XFILLER_13_45 vssd1 vssd1 vccd1 vccd1 sky130_fd_sc_hd__decap_8
XANTENNA__049__A _110_/Q vssd1 vssd1 vccd1 vccd1 sky130_fd_sc_hd__diode_2
XFILLER_1_124 vssd1 vssd1 vccd1 vccd1 sky130_fd_sc_hd__decap_4
XFILLER_8_5 vssd1 vssd1 vccd1 vccd1 sky130_fd_sc_hd__decap_4
XANTENNA__051__B _107_/B vssd1 vssd1 vccd1 vccd1 sky130_fd_sc_hd__diode_2
X_091_ _110_/Q _107_/B _091_/C vssd1 vssd1 vccd1 vccd1 _092_/A sky130_fd_sc_hd__and3_1
XFILLER_1_48 vssd1 vssd1 vccd1 vccd1 sky130_fd_sc_hd__decap_8
XFILLER_1_37 vssd1 vssd1 vccd1 vccd1 sky130_fd_sc_hd__fill_1
XFILLER_1_15 vssd1 vssd1 vccd1 vccd1 sky130_fd_sc_hd__decap_4
XTAP_70 vssd1 vccd1 sky130_fd_sc_hd__tapvpwrvgnd_1
Xinput3 read_value[10] vssd1 vssd1 vccd1 vccd1 _065_/C sky130_fd_sc_hd__clkbuf_1
X_074_ _074_/A vssd1 vssd1 vccd1 vccd1 _074_/X sky130_fd_sc_hd__clkbuf_1
XFILLER_10_24 vssd1 vssd1 vccd1 vccd1 sky130_fd_sc_hd__decap_4
XFILLER_18_7 vssd1 vssd1 vccd1 vccd1 sky130_fd_sc_hd__decap_4
XANTENNA__057__A _110_/Q vssd1 vssd1 vccd1 vccd1 sky130_fd_sc_hd__diode_2
X_057_ _110_/Q _107_/B _057_/C vssd1 vssd1 vccd1 vccd1 _058_/A sky130_fd_sc_hd__and3_1
XPHY_9 vssd1 vssd1 vccd1 vccd1 sky130_fd_sc_hd__decap_3
XFILLER_7_14 vssd1 vssd1 vccd1 vccd1 sky130_fd_sc_hd__decap_4
XFILLER_7_69 vssd1 vssd1 vccd1 vccd1 sky130_fd_sc_hd__decap_12
XANTENNA_input33_A read_value[9] vssd1 vssd1 vccd1 vccd1 sky130_fd_sc_hd__diode_2
XFILLER_8_119 vssd1 vssd1 vccd1 vccd1 sky130_fd_sc_hd__decap_6
X_109_ _109_/CLK _109_/D vssd1 vssd1 vccd1 vccd1 _109_/Q sky130_fd_sc_hd__dfxtp_1
XFILLER_4_37 vssd1 vssd1 vccd1 vccd1 sky130_fd_sc_hd__decap_4
XFILLER_13_57 vssd1 vssd1 vccd1 vccd1 sky130_fd_sc_hd__decap_12
XANTENNA__049__B _107_/B vssd1 vssd1 vccd1 vccd1 sky130_fd_sc_hd__diode_2
XANTENNA__065__A _110_/Q vssd1 vssd1 vccd1 vccd1 sky130_fd_sc_hd__diode_2
X_090_ _090_/A vssd1 vssd1 vccd1 vccd1 _090_/X sky130_fd_sc_hd__clkbuf_1
XTAP_71 vssd1 vccd1 sky130_fd_sc_hd__tapvpwrvgnd_1
Xinput4 read_value[11] vssd1 vssd1 vccd1 vccd1 _067_/C sky130_fd_sc_hd__clkbuf_1
XTAP_60 vssd1 vccd1 sky130_fd_sc_hd__tapvpwrvgnd_1
X_073_ _110_/Q _107_/B _073_/C vssd1 vssd1 vccd1 vccd1 _074_/A sky130_fd_sc_hd__and3_1
XANTENNA__057__B _107_/B vssd1 vssd1 vccd1 vccd1 sky130_fd_sc_hd__diode_2
XANTENNA__073__A _110_/Q vssd1 vssd1 vccd1 vccd1 sky130_fd_sc_hd__diode_2
XFILLER_15_124 vssd1 vssd1 vccd1 vccd1 sky130_fd_sc_hd__decap_4
XFILLER_15_113 vssd1 vssd1 vccd1 vccd1 sky130_fd_sc_hd__fill_1
XFILLER_15_102 vssd1 vssd1 vccd1 vccd1 sky130_fd_sc_hd__decap_4
X_056_ _056_/A vssd1 vssd1 vccd1 vccd1 _056_/X sky130_fd_sc_hd__clkbuf_1
XFILLER_16_57 vssd1 vssd1 vccd1 vccd1 sky130_fd_sc_hd__decap_4
XANTENNA_input26_A read_value[31] vssd1 vssd1 vccd1 vccd1 sky130_fd_sc_hd__diode_2
X_108_ _108_/A vssd1 vssd1 vccd1 vccd1 _108_/X sky130_fd_sc_hd__clkbuf_1
X_039_ _110_/Q _038_/Y _041_/A _109_/Q vssd1 vssd1 vccd1 vccd1 _040_/B sky130_fd_sc_hd__a22oi_1
XFILLER_4_49 vssd1 vssd1 vccd1 vccd1 sky130_fd_sc_hd__decap_12
XFILLER_13_69 vssd1 vssd1 vccd1 vccd1 sky130_fd_sc_hd__decap_12
XFILLER_13_14 vssd1 vssd1 vccd1 vccd1 sky130_fd_sc_hd__decap_4
XANTENNA__065__B _107_/B vssd1 vssd1 vccd1 vccd1 sky130_fd_sc_hd__diode_2
XANTENNA__081__A _110_/Q vssd1 vssd1 vccd1 vccd1 sky130_fd_sc_hd__diode_2
Xinput5 read_value[12] vssd1 vssd1 vccd1 vccd1 _069_/C sky130_fd_sc_hd__clkbuf_1
XTAP_72 vssd1 vccd1 sky130_fd_sc_hd__tapvpwrvgnd_1
XTAP_50 vssd1 vccd1 sky130_fd_sc_hd__tapvpwrvgnd_1
XTAP_61 vssd1 vccd1 sky130_fd_sc_hd__tapvpwrvgnd_1
X_072_ _072_/A vssd1 vssd1 vccd1 vccd1 _072_/X sky130_fd_sc_hd__clkbuf_1
XFILLER_2_71 vssd1 vssd1 vccd1 vccd1 sky130_fd_sc_hd__decap_4
X_055_ _110_/Q _107_/B _055_/C vssd1 vssd1 vccd1 vccd1 _056_/A sky130_fd_sc_hd__and3_1
XANTENNA__073__B _107_/B vssd1 vssd1 vccd1 vccd1 sky130_fd_sc_hd__diode_2
Xinput30 read_value[6] vssd1 vssd1 vccd1 vccd1 _057_/C sky130_fd_sc_hd__clkbuf_1
XFILLER_16_14 vssd1 vssd1 vccd1 vccd1 sky130_fd_sc_hd__decap_4
XFILLER_12_128 vssd1 vssd1 vccd1 vccd1 sky130_fd_sc_hd__fill_1
X_107_ _110_/Q _107_/B _107_/C vssd1 vssd1 vccd1 vccd1 _108_/A sky130_fd_sc_hd__and3_1
XANTENNA_input19_A read_value[25] vssd1 vssd1 vccd1 vccd1 sky130_fd_sc_hd__diode_2
XFILLER_14_3 vssd1 vssd1 vccd1 vccd1 sky130_fd_sc_hd__decap_4
XFILLER_7_132 vssd1 vssd1 vccd1 vccd1 sky130_fd_sc_hd__decap_4
X_038_ _107_/B vssd1 vssd1 vccd1 vccd1 _038_/Y sky130_fd_sc_hd__inv_2
XANTENNA__079__A _110_/Q vssd1 vssd1 vccd1 vccd1 sky130_fd_sc_hd__diode_2
XFILLER_8_81 vssd1 vssd1 vccd1 vccd1 sky130_fd_sc_hd__decap_3
XFILLER_4_135 vssd1 vssd1 vccd1 vccd1 sky130_fd_sc_hd__fill_1
XFILLER_1_116 vssd1 vssd1 vccd1 vccd1 sky130_fd_sc_hd__decap_4
XFILLER_1_105 vssd1 vssd1 vccd1 vccd1 sky130_fd_sc_hd__decap_6
XANTENNA__081__B _107_/B vssd1 vssd1 vccd1 vccd1 sky130_fd_sc_hd__diode_2
XFILLER_5_71 vssd1 vssd1 vccd1 vccd1 sky130_fd_sc_hd__decap_8
XFILLER_5_93 vssd1 vssd1 vccd1 vccd1 sky130_fd_sc_hd__decap_4
XFILLER_6_5 vssd1 vssd1 vccd1 vccd1 sky130_fd_sc_hd__decap_4
XTAP_73 vssd1 vccd1 sky130_fd_sc_hd__tapvpwrvgnd_1
XTAP_62 vssd1 vccd1 sky130_fd_sc_hd__tapvpwrvgnd_1
XTAP_40 vssd1 vccd1 sky130_fd_sc_hd__tapvpwrvgnd_1
XTAP_51 vssd1 vccd1 sky130_fd_sc_hd__tapvpwrvgnd_1
Xinput6 read_value[13] vssd1 vssd1 vccd1 vccd1 _071_/C sky130_fd_sc_hd__clkbuf_1
XFILLER_10_38 vssd1 vssd1 vccd1 vccd1 sky130_fd_sc_hd__decap_12
XFILLER_18_123 vssd1 vssd1 vccd1 vccd1 sky130_fd_sc_hd__fill_1
XANTENNA__087__A _110_/Q vssd1 vssd1 vccd1 vccd1 sky130_fd_sc_hd__diode_2
X_071_ _110_/Q _107_/B _071_/C vssd1 vssd1 vccd1 vccd1 _072_/A sky130_fd_sc_hd__and3_1
XFILLER_2_83 vssd1 vssd1 vccd1 vccd1 sky130_fd_sc_hd__fill_1
Xinput20 read_value[26] vssd1 vssd1 vccd1 vccd1 _097_/C sky130_fd_sc_hd__clkbuf_1
XFILLER_16_7 vssd1 vssd1 vccd1 vccd1 sky130_fd_sc_hd__decap_4
X_054_ _054_/A vssd1 vssd1 vccd1 vccd1 _054_/X sky130_fd_sc_hd__clkbuf_1
Xinput31 read_value[7] vssd1 vssd1 vccd1 vccd1 _059_/C sky130_fd_sc_hd__clkbuf_1
XFILLER_7_28 vssd1 vssd1 vccd1 vccd1 sky130_fd_sc_hd__decap_4
XFILLER_16_48 vssd1 vssd1 vccd1 vccd1 sky130_fd_sc_hd__decap_4
XFILLER_12_118 vssd1 vssd1 vccd1 vccd1 sky130_fd_sc_hd__decap_4
X_106_ _106_/A vssd1 vssd1 vccd1 vccd1 _106_/X sky130_fd_sc_hd__clkbuf_1
XFILLER_7_122 vssd1 vssd1 vccd1 vccd1 sky130_fd_sc_hd__fill_1
XANTENNA__095__A _110_/Q vssd1 vssd1 vccd1 vccd1 sky130_fd_sc_hd__diode_2
XFILLER_4_114 vssd1 vssd1 vccd1 vccd1 sky130_fd_sc_hd__decap_4
XANTENNA_input31_A read_value[7] vssd1 vssd1 vccd1 vccd1 sky130_fd_sc_hd__diode_2
XANTENNA__079__B _107_/B vssd1 vssd1 vccd1 vccd1 sky130_fd_sc_hd__diode_2
XFILLER_13_27 vssd1 vssd1 vccd1 vccd1 sky130_fd_sc_hd__decap_4
XFILLER_14_92 vssd1 vssd1 vccd1 vccd1 sky130_fd_sc_hd__decap_4
XFILLER_14_70 vssd1 vssd1 vccd1 vccd1 sky130_fd_sc_hd__decap_4
XTAP_74 vssd1 vccd1 sky130_fd_sc_hd__tapvpwrvgnd_1
XTAP_63 vssd1 vccd1 sky130_fd_sc_hd__tapvpwrvgnd_1
XTAP_41 vssd1 vccd1 sky130_fd_sc_hd__tapvpwrvgnd_1
Xinput7 read_value[14] vssd1 vssd1 vccd1 vccd1 _073_/C sky130_fd_sc_hd__clkbuf_1
XTAP_52 vssd1 vccd1 sky130_fd_sc_hd__tapvpwrvgnd_1
XANTENNA__087__B _107_/B vssd1 vssd1 vccd1 vccd1 sky130_fd_sc_hd__diode_2
X_070_ _070_/A vssd1 vssd1 vccd1 vccd1 _070_/X sky130_fd_sc_hd__clkbuf_1
XFILLER_18_135 vssd1 vssd1 vccd1 vccd1 sky130_fd_sc_hd__fill_1
Xclkbuf_1_1_0_clk clkbuf_0_clk/X vssd1 vssd1 vccd1 vccd1 _109_/CLK sky130_fd_sc_hd__clkbuf_2
XFILLER_2_40 vssd1 vssd1 vccd1 vccd1 sky130_fd_sc_hd__decap_4
X_053_ _110_/Q _107_/B _053_/C vssd1 vssd1 vccd1 vccd1 _054_/A sky130_fd_sc_hd__and3_1
XFILLER_16_27 vssd1 vssd1 vccd1 vccd1 sky130_fd_sc_hd__fill_1
Xinput21 read_value[27] vssd1 vssd1 vccd1 vccd1 _099_/C sky130_fd_sc_hd__clkbuf_1
Xinput10 read_value[17] vssd1 vssd1 vccd1 vccd1 _079_/C sky130_fd_sc_hd__clkbuf_1
Xinput32 read_value[8] vssd1 vssd1 vccd1 vccd1 _061_/C sky130_fd_sc_hd__clkbuf_1
X_105_ _110_/Q _107_/B _105_/C vssd1 vssd1 vccd1 vccd1 _106_/A sky130_fd_sc_hd__and3_1
XFILLER_7_101 vssd1 vssd1 vccd1 vccd1 sky130_fd_sc_hd__fill_1
XANTENNA__095__B _107_/B vssd1 vssd1 vccd1 vccd1 sky130_fd_sc_hd__diode_2
XFILLER_17_92 vssd1 vssd1 vccd1 vccd1 sky130_fd_sc_hd__decap_6
XFILLER_17_81 vssd1 vssd1 vccd1 vccd1 sky130_fd_sc_hd__decap_6
XANTENNA_input24_A read_value[2] vssd1 vssd1 vccd1 vccd1 sky130_fd_sc_hd__diode_2
XFILLER_5_84 vssd1 vssd1 vccd1 vccd1 sky130_fd_sc_hd__decap_4
XTAP_75 vssd1 vccd1 sky130_fd_sc_hd__tapvpwrvgnd_1
XTAP_64 vssd1 vccd1 sky130_fd_sc_hd__tapvpwrvgnd_1
Xinput8 read_value[15] vssd1 vssd1 vccd1 vccd1 _075_/C sky130_fd_sc_hd__clkbuf_1
XTAP_42 vssd1 vccd1 sky130_fd_sc_hd__tapvpwrvgnd_1
XTAP_53 vssd1 vccd1 sky130_fd_sc_hd__tapvpwrvgnd_1
XFILLER_18_103 vssd1 vssd1 vccd1 vccd1 sky130_fd_sc_hd__fill_1
XFILLER_2_52 vssd1 vssd1 vccd1 vccd1 sky130_fd_sc_hd__decap_4
XFILLER_2_85 vssd1 vssd1 vccd1 vccd1 sky130_fd_sc_hd__fill_1
XFILLER_2_96 vssd1 vssd1 vccd1 vccd1 sky130_fd_sc_hd__decap_4
XFILLER_15_117 vssd1 vssd1 vccd1 vccd1 sky130_fd_sc_hd__decap_4
XFILLER_11_94 vssd1 vssd1 vccd1 vccd1 sky130_fd_sc_hd__decap_3
X_052_ _052_/A vssd1 vssd1 vccd1 vccd1 _052_/X sky130_fd_sc_hd__clkbuf_1
Xinput11 read_value[18] vssd1 vssd1 vccd1 vccd1 _081_/C sky130_fd_sc_hd__clkbuf_1
XFILLER_16_39 vssd1 vssd1 vccd1 vccd1 sky130_fd_sc_hd__fill_1
Xinput22 read_value[28] vssd1 vssd1 vccd1 vccd1 _101_/C sky130_fd_sc_hd__clkbuf_1
Xinput33 read_value[9] vssd1 vssd1 vccd1 vccd1 _063_/C sky130_fd_sc_hd__clkbuf_1
XFILLER_12_109 vssd1 vssd1 vccd1 vccd1 sky130_fd_sc_hd__fill_1
X_104_ _104_/A vssd1 vssd1 vccd1 vccd1 _104_/X sky130_fd_sc_hd__clkbuf_1
XFILLER_11_120 vssd1 vssd1 vccd1 vccd1 sky130_fd_sc_hd__decap_4