* NGSPICE file created from io_output_arbiter.ext - technology: sky130A

* Black-box entry subcircuit for sky130_fd_sc_hd__decap_4 abstract view
.subckt sky130_fd_sc_hd__decap_4 VGND VNB VPB VPWR
.ends

* Black-box entry subcircuit for sky130_fd_sc_hd__and2_1 abstract view
.subckt sky130_fd_sc_hd__and2_1 A B VGND VNB VPB VPWR X
.ends

* Black-box entry subcircuit for sky130_fd_sc_hd__clkbuf_1 abstract view
.subckt sky130_fd_sc_hd__clkbuf_1 A VGND VNB VPB VPWR X
.ends

* Black-box entry subcircuit for sky130_fd_sc_hd__diode_2 abstract view
.subckt sky130_fd_sc_hd__diode_2 DIODE VGND VNB VPB VPWR
.ends

* Black-box entry subcircuit for sky130_fd_sc_hd__decap_12 abstract view
.subckt sky130_fd_sc_hd__decap_12 VGND VNB VPB VPWR
.ends

* Black-box entry subcircuit for sky130_fd_sc_hd__decap_6 abstract view
.subckt sky130_fd_sc_hd__decap_6 VGND VNB VPB VPWR
.ends

* Black-box entry subcircuit for sky130_fd_sc_hd__buf_2 abstract view
.subckt sky130_fd_sc_hd__buf_2 A VGND VNB VPB VPWR X
.ends

* Black-box entry subcircuit for sky130_fd_sc_hd__fill_1 abstract view
.subckt sky130_fd_sc_hd__fill_1 VGND VNB VPB VPWR
.ends

* Black-box entry subcircuit for sky130_fd_sc_hd__decap_8 abstract view
.subckt sky130_fd_sc_hd__decap_8 VGND VNB VPB VPWR
.ends

* Black-box entry subcircuit for sky130_fd_sc_hd__decap_3 abstract view
.subckt sky130_fd_sc_hd__decap_3 VGND VNB VPB VPWR
.ends

* Black-box entry subcircuit for sky130_fd_sc_hd__or3b_1 abstract view
.subckt sky130_fd_sc_hd__or3b_1 A B C_N VGND VNB VPB VPWR X
.ends

* Black-box entry subcircuit for sky130_fd_sc_hd__fill_2 abstract view
.subckt sky130_fd_sc_hd__fill_2 VGND VNB VPB VPWR
.ends

* Black-box entry subcircuit for sky130_fd_sc_hd__clkbuf_16 abstract view
.subckt sky130_fd_sc_hd__clkbuf_16 A VGND VNB VPB VPWR X
.ends

* Black-box entry subcircuit for sky130_fd_sc_hd__tapvpwrvgnd_1 abstract view
.subckt sky130_fd_sc_hd__tapvpwrvgnd_1 VGND VPWR
.ends

* Black-box entry subcircuit for sky130_fd_sc_hd__dfxtp_4 abstract view
.subckt sky130_fd_sc_hd__dfxtp_4 CLK D VGND VNB VPB VPWR Q
.ends

* Black-box entry subcircuit for sky130_fd_sc_hd__dfxtp_1 abstract view
.subckt sky130_fd_sc_hd__dfxtp_1 CLK D VGND VNB VPB VPWR Q
.ends

* Black-box entry subcircuit for sky130_fd_sc_hd__or3_1 abstract view
.subckt sky130_fd_sc_hd__or3_1 A B C VGND VNB VPB VPWR X
.ends

* Black-box entry subcircuit for sky130_fd_sc_hd__clkinv_2 abstract view
.subckt sky130_fd_sc_hd__clkinv_2 A VGND VNB VPB VPWR Y
.ends

* Black-box entry subcircuit for sky130_fd_sc_hd__inv_2 abstract view
.subckt sky130_fd_sc_hd__inv_2 A VGND VNB VPB VPWR Y
.ends

* Black-box entry subcircuit for sky130_fd_sc_hd__clkbuf_2 abstract view
.subckt sky130_fd_sc_hd__clkbuf_2 A VGND VNB VPB VPWR X
.ends

.subckt io_output_arbiter clk data_core0[0] data_core0[10] data_core0[11] data_core0[12]
+ data_core0[13] data_core0[14] data_core0[15] data_core0[16] data_core0[17] data_core0[18]
+ data_core0[19] data_core0[1] data_core0[20] data_core0[21] data_core0[22] data_core0[23]
+ data_core0[24] data_core0[25] data_core0[26] data_core0[27] data_core0[28] data_core0[29]
+ data_core0[2] data_core0[30] data_core0[31] data_core0[3] data_core0[4] data_core0[5]
+ data_core0[6] data_core0[7] data_core0[8] data_core0[9] is_ready_core0 print_hex_enable
+ print_output[0] print_output[10] print_output[11] print_output[12] print_output[13]
+ print_output[14] print_output[15] print_output[16] print_output[17] print_output[18]
+ print_output[19] print_output[1] print_output[20] print_output[21] print_output[22]
+ print_output[23] print_output[24] print_output[25] print_output[26] print_output[27]
+ print_output[28] print_output[29] print_output[2] print_output[30] print_output[31]
+ print_output[3] print_output[4] print_output[5] print_output[6] print_output[7]
+ print_output[8] print_output[9] req_core0 reset vccd1 vssd1
XFILLER_7_7 vssd1 vssd1 vccd1 vccd1 sky130_fd_sc_hd__decap_4
XFILLER_12_98 vssd1 vssd1 vccd1 vccd1 sky130_fd_sc_hd__decap_4
X_062_ _108_/Q _062_/B vssd1 vssd1 vccd1 vccd1 _063_/A sky130_fd_sc_hd__and2_1
XFILLER_0_79 vssd1 vssd1 vccd1 vccd1 sky130_fd_sc_hd__decap_4
XFILLER_0_46 vssd1 vssd1 vccd1 vccd1 sky130_fd_sc_hd__decap_4
XFILLER_0_24 vssd1 vssd1 vccd1 vccd1 sky130_fd_sc_hd__decap_4
XFILLER_9_44 vssd1 vssd1 vccd1 vccd1 sky130_fd_sc_hd__decap_4
XFILLER_15_6 vssd1 vssd1 vccd1 vccd1 sky130_fd_sc_hd__decap_4
X_045_ _045_/A vssd1 vssd1 vccd1 vccd1 _045_/X sky130_fd_sc_hd__clkbuf_1
XANTENNA_input18_A data_core0[25] vssd1 vssd1 vccd1 vccd1 sky130_fd_sc_hd__diode_2
XFILLER_6_67 vssd1 vssd1 vccd1 vccd1 sky130_fd_sc_hd__decap_12
XFILLER_15_87 vssd1 vssd1 vccd1 vccd1 sky130_fd_sc_hd__decap_4
XFILLER_15_65 vssd1 vssd1 vccd1 vccd1 sky130_fd_sc_hd__decap_6
XANTENNA__042__A _108_/Q vssd1 vssd1 vccd1 vccd1 sky130_fd_sc_hd__diode_2
Xoutput53 _091_/X vssd1 vssd1 vccd1 vccd1 print_output[24] sky130_fd_sc_hd__buf_2
XFILLER_16_120 vssd1 vssd1 vccd1 vccd1 sky130_fd_sc_hd__decap_4
Xoutput42 _071_/X vssd1 vssd1 vccd1 vccd1 print_output[14] sky130_fd_sc_hd__buf_2
Xoutput64 _053_/X vssd1 vssd1 vccd1 vccd1 print_output[5] sky130_fd_sc_hd__buf_2
XFILLER_3_57 vssd1 vssd1 vccd1 vccd1 sky130_fd_sc_hd__decap_12
XFILLER_6_119 vssd1 vssd1 vccd1 vccd1 sky130_fd_sc_hd__decap_4
XANTENNA__050__A _108_/Q vssd1 vssd1 vccd1 vccd1 sky130_fd_sc_hd__diode_2
XFILLER_0_69 vssd1 vssd1 vccd1 vccd1 sky130_fd_sc_hd__decap_6
XFILLER_2_100 vssd1 vssd1 vccd1 vccd1 sky130_fd_sc_hd__decap_4
X_061_ _061_/A vssd1 vssd1 vccd1 vccd1 _061_/X sky130_fd_sc_hd__clkbuf_1
XFILLER_9_67 vssd1 vssd1 vccd1 vccd1 sky130_fd_sc_hd__decap_6
XFILLER_18_65 vssd1 vssd1 vccd1 vccd1 sky130_fd_sc_hd__decap_4
XFILLER_18_43 vssd1 vssd1 vccd1 vccd1 sky130_fd_sc_hd__fill_1
XFILLER_18_32 vssd1 vssd1 vccd1 vccd1 sky130_fd_sc_hd__decap_4
X_044_ _108_/Q _044_/B vssd1 vssd1 vccd1 vccd1 _045_/A sky130_fd_sc_hd__and2_1
XFILLER_6_79 vssd1 vssd1 vccd1 vccd1 sky130_fd_sc_hd__decap_4
Xoutput54 _093_/X vssd1 vssd1 vccd1 vccd1 print_output[25] sky130_fd_sc_hd__buf_2
Xoutput43 _073_/X vssd1 vssd1 vccd1 vccd1 print_output[15] sky130_fd_sc_hd__buf_2
XANTENNA_input30_A data_core0[7] vssd1 vssd1 vccd1 vccd1 sky130_fd_sc_hd__diode_2
Xoutput65 _055_/X vssd1 vssd1 vccd1 vccd1 print_output[6] sky130_fd_sc_hd__buf_2
XFILLER_13_113 vssd1 vssd1 vccd1 vccd1 sky130_fd_sc_hd__decap_4
XFILLER_13_102 vssd1 vssd1 vccd1 vccd1 sky130_fd_sc_hd__decap_4
XFILLER_3_25 vssd1 vssd1 vccd1 vccd1 sky130_fd_sc_hd__decap_4
XFILLER_3_69 vssd1 vssd1 vccd1 vccd1 sky130_fd_sc_hd__decap_12
XFILLER_6_109 vssd1 vssd1 vccd1 vccd1 sky130_fd_sc_hd__decap_8
XANTENNA__048__A _108_/Q vssd1 vssd1 vccd1 vccd1 sky130_fd_sc_hd__diode_2
XFILLER_10_105 vssd1 vssd1 vccd1 vccd1 sky130_fd_sc_hd__decap_4
XFILLER_3_3 vssd1 vssd1 vccd1 vccd1 sky130_fd_sc_hd__decap_4
X_060_ _108_/Q _060_/B vssd1 vssd1 vccd1 vccd1 _061_/A sky130_fd_sc_hd__and2_1
XFILLER_9_35 vssd1 vssd1 vccd1 vccd1 sky130_fd_sc_hd__decap_4
XFILLER_9_79 vssd1 vssd1 vccd1 vccd1 sky130_fd_sc_hd__decap_4
XFILLER_18_99 vssd1 vssd1 vccd1 vccd1 sky130_fd_sc_hd__decap_4
XFILLER_18_88 vssd1 vssd1 vccd1 vccd1 sky130_fd_sc_hd__decap_6
XFILLER_18_55 vssd1 vssd1 vccd1 vccd1 sky130_fd_sc_hd__fill_1
X_043_ _043_/A vssd1 vssd1 vccd1 vccd1 _043_/X sky130_fd_sc_hd__clkbuf_1
XFILLER_1_91 vssd1 vssd1 vccd1 vccd1 sky130_fd_sc_hd__fill_1
XANTENNA__056__A _108_/Q vssd1 vssd1 vccd1 vccd1 sky130_fd_sc_hd__diode_2
XFILLER_6_14 vssd1 vssd1 vccd1 vccd1 sky130_fd_sc_hd__decap_4
Xoutput55 _095_/X vssd1 vssd1 vccd1 vccd1 print_output[26] sky130_fd_sc_hd__buf_2
XFILLER_15_12 vssd1 vssd1 vccd1 vccd1 sky130_fd_sc_hd__decap_12
Xoutput66 _057_/X vssd1 vssd1 vccd1 vccd1 print_output[7] sky130_fd_sc_hd__buf_2
XANTENNA_input23_A data_core0[2] vssd1 vssd1 vccd1 vccd1 sky130_fd_sc_hd__diode_2
Xoutput44 _075_/X vssd1 vssd1 vccd1 vccd1 print_output[16] sky130_fd_sc_hd__buf_2
XFILLER_9_129 vssd1 vssd1 vccd1 vccd1 sky130_fd_sc_hd__decap_6
XFILLER_5_7 vssd1 vssd1 vccd1 vccd1 sky130_fd_sc_hd__fill_1
XANTENNA__064__A _108_/Q vssd1 vssd1 vccd1 vccd1 sky130_fd_sc_hd__diode_2
XFILLER_5_132 vssd1 vssd1 vccd1 vccd1 sky130_fd_sc_hd__decap_4
XFILLER_0_38 vssd1 vssd1 vccd1 vccd1 sky130_fd_sc_hd__decap_4
XFILLER_2_113 vssd1 vssd1 vccd1 vccd1 sky130_fd_sc_hd__decap_4
XFILLER_2_135 vssd1 vssd1 vccd1 vccd1 sky130_fd_sc_hd__fill_1
XFILLER_9_14 vssd1 vssd1 vccd1 vccd1 sky130_fd_sc_hd__decap_12
XFILLER_18_23 vssd1 vssd1 vccd1 vccd1 sky130_fd_sc_hd__decap_4
X_042_ _108_/Q _042_/B vssd1 vssd1 vccd1 vccd1 _043_/A sky130_fd_sc_hd__and2_1
XANTENNA__072__A _108_/Q vssd1 vssd1 vccd1 vccd1 sky130_fd_sc_hd__diode_2
XFILLER_1_81 vssd1 vssd1 vccd1 vccd1 sky130_fd_sc_hd__decap_4
XFILLER_6_37 vssd1 vssd1 vccd1 vccd1 sky130_fd_sc_hd__decap_12
XFILLER_10_90 vssd1 vssd1 vccd1 vccd1 sky130_fd_sc_hd__decap_12
Xoutput56 _097_/X vssd1 vssd1 vccd1 vccd1 print_output[27] sky130_fd_sc_hd__buf_2
Xoutput45 _077_/X vssd1 vssd1 vccd1 vccd1 print_output[17] sky130_fd_sc_hd__buf_2
XFILLER_15_57 vssd1 vssd1 vccd1 vccd1 sky130_fd_sc_hd__decap_3
XFILLER_15_24 vssd1 vssd1 vccd1 vccd1 sky130_fd_sc_hd__decap_12
Xoutput67 _059_/X vssd1 vssd1 vccd1 vccd1 print_output[8] sky130_fd_sc_hd__buf_2
XFILLER_16_112 vssd1 vssd1 vccd1 vccd1 sky130_fd_sc_hd__decap_4
XANTENNA_input16_A data_core0[23] vssd1 vssd1 vccd1 vccd1 sky130_fd_sc_hd__diode_2
XANTENNA_input8_A data_core0[16] vssd1 vssd1 vccd1 vccd1 sky130_fd_sc_hd__diode_2
XFILLER_3_38 vssd1 vssd1 vccd1 vccd1 sky130_fd_sc_hd__decap_4
XFILLER_10_129 vssd1 vssd1 vccd1 vccd1 sky130_fd_sc_hd__decap_6
XANTENNA__080__A _108_/Q vssd1 vssd1 vccd1 vccd1 sky130_fd_sc_hd__diode_2
XFILLER_5_111 vssd1 vssd1 vccd1 vccd1 sky130_fd_sc_hd__fill_1
XFILLER_9_26 vssd1 vssd1 vccd1 vccd1 sky130_fd_sc_hd__decap_6
XFILLER_9_48 vssd1 vssd1 vccd1 vccd1 sky130_fd_sc_hd__fill_1
XFILLER_18_57 vssd1 vssd1 vccd1 vccd1 sky130_fd_sc_hd__decap_4
X_041_ _041_/A vssd1 vssd1 vccd1 vccd1 _106_/A sky130_fd_sc_hd__clkbuf_1
XFILLER_13_7 vssd1 vssd1 vccd1 vccd1 sky130_fd_sc_hd__decap_12
XANTENNA_clkbuf_0_clk_A clk vssd1 vssd1 vccd1 vccd1 sky130_fd_sc_hd__diode_2
XFILLER_6_27 vssd1 vssd1 vccd1 vccd1 sky130_fd_sc_hd__fill_1
XFILLER_6_49 vssd1 vssd1 vccd1 vccd1 sky130_fd_sc_hd__decap_12
Xoutput57 _099_/X vssd1 vssd1 vccd1 vccd1 print_output[28] sky130_fd_sc_hd__buf_2
XFILLER_15_36 vssd1 vssd1 vccd1 vccd1 sky130_fd_sc_hd__decap_12
Xoutput46 _079_/X vssd1 vssd1 vccd1 vccd1 print_output[18] sky130_fd_sc_hd__buf_2
Xoutput35 _106_/A vssd1 vssd1 vccd1 vccd1 is_ready_core0 sky130_fd_sc_hd__buf_2
XFILLER_16_135 vssd1 vssd1 vccd1 vccd1 sky130_fd_sc_hd__fill_1
Xoutput68 _061_/X vssd1 vssd1 vccd1 vccd1 print_output[9] sky130_fd_sc_hd__buf_2
XANTENNA__078__A _108_/Q vssd1 vssd1 vccd1 vccd1 sky130_fd_sc_hd__diode_2
XFILLER_16_90 vssd1 vssd1 vccd1 vccd1 sky130_fd_sc_hd__decap_4
XFILLER_12_15 vssd1 vssd1 vccd1 vccd1 sky130_fd_sc_hd__decap_12
XFILLER_4_71 vssd1 vssd1 vccd1 vccd1 sky130_fd_sc_hd__fill_1
XFILLER_0_29 vssd1 vssd1 vccd1 vccd1 sky130_fd_sc_hd__decap_4
XFILLER_18_69 vssd1 vssd1 vccd1 vccd1 sky130_fd_sc_hd__fill_1
XFILLER_18_47 vssd1 vssd1 vccd1 vccd1 sky130_fd_sc_hd__decap_8
X_040_ _040_/A _040_/B _107_/Q vssd1 vssd1 vccd1 vccd1 _041_/A sky130_fd_sc_hd__or3b_1
XFILLER_1_3 vssd1 vssd1 vccd1 vccd1 sky130_fd_sc_hd__decap_4
XANTENNA__086__A _108_/Q vssd1 vssd1 vccd1 vccd1 sky130_fd_sc_hd__diode_2
XFILLER_1_94 vssd1 vssd1 vccd1 vccd1 sky130_fd_sc_hd__decap_4
XFILLER_15_48 vssd1 vssd1 vccd1 vccd1 sky130_fd_sc_hd__fill_2
Xoutput58 _101_/X vssd1 vssd1 vccd1 vccd1 print_output[29] sky130_fd_sc_hd__buf_2
Xoutput47 _081_/X vssd1 vssd1 vccd1 vccd1 print_output[19] sky130_fd_sc_hd__buf_2
Xoutput36 _108_/Q vssd1 vssd1 vccd1 vccd1 print_hex_enable sky130_fd_sc_hd__buf_2
XPHY_0 vssd1 vssd1 vccd1 vccd1 sky130_fd_sc_hd__decap_3
XANTENNA__094__A _108_/Q vssd1 vssd1 vccd1 vccd1 sky130_fd_sc_hd__diode_2
XFILLER_13_128 vssd1 vssd1 vccd1 vccd1 sky130_fd_sc_hd__decap_8
XFILLER_13_117 vssd1 vssd1 vccd1 vccd1 sky130_fd_sc_hd__fill_1
XANTENNA_input21_A data_core0[28] vssd1 vssd1 vccd1 vccd1 sky130_fd_sc_hd__diode_2
XFILLER_8_110 vssd1 vssd1 vccd1 vccd1 sky130_fd_sc_hd__fill_1
XFILLER_8_132 vssd1 vssd1 vccd1 vccd1 sky130_fd_sc_hd__decap_4
XFILLER_12_27 vssd1 vssd1 vccd1 vccd1 sky130_fd_sc_hd__fill_1
XFILLER_5_113 vssd1 vssd1 vccd1 vccd1 sky130_fd_sc_hd__decap_3
XFILLER_5_124 vssd1 vssd1 vccd1 vccd1 sky130_fd_sc_hd__decap_4
XFILLER_4_83 vssd1 vssd1 vccd1 vccd1 sky130_fd_sc_hd__fill_1
XFILLER_18_15 vssd1 vssd1 vccd1 vccd1 sky130_fd_sc_hd__decap_4
X_099_ _099_/A vssd1 vssd1 vccd1 vccd1 _099_/X sky130_fd_sc_hd__clkbuf_1
XFILLER_16_104 vssd1 vssd1 vccd1 vccd1 sky130_fd_sc_hd__decap_4
Xoutput37 _043_/X vssd1 vssd1 vccd1 vccd1 print_output[0] sky130_fd_sc_hd__buf_2
Xoutput48 _045_/X vssd1 vssd1 vccd1 vccd1 print_output[1] sky130_fd_sc_hd__buf_2
Xoutput59 _047_/X vssd1 vssd1 vccd1 vccd1 print_output[2] sky130_fd_sc_hd__buf_2
XPHY_1 vssd1 vssd1 vccd1 vccd1 sky130_fd_sc_hd__decap_3
XFILLER_7_72 vssd1 vssd1 vccd1 vccd1 sky130_fd_sc_hd__decap_12
XANTENNA_input14_A data_core0[21] vssd1 vssd1 vccd1 vccd1 sky130_fd_sc_hd__diode_2
XFILLER_3_19 vssd1 vssd1 vccd1 vccd1 sky130_fd_sc_hd__decap_4
XFILLER_8_122 vssd1 vssd1 vccd1 vccd1 sky130_fd_sc_hd__decap_6
XANTENNA_input6_A data_core0[14] vssd1 vssd1 vccd1 vccd1 sky130_fd_sc_hd__diode_2
XFILLER_2_106 vssd1 vssd1 vccd1 vccd1 sky130_fd_sc_hd__decap_4
XFILLER_13_93 vssd1 vssd1 vccd1 vccd1 sky130_fd_sc_hd__fill_1
XFILLER_18_27 vssd1 vssd1 vccd1 vccd1 sky130_fd_sc_hd__fill_1
X_098_ _108_/Q _098_/B vssd1 vssd1 vccd1 vccd1 _099_/A sky130_fd_sc_hd__and2_1
XFILLER_1_74 vssd1 vssd1 vccd1 vccd1 sky130_fd_sc_hd__decap_4
XFILLER_1_52 vssd1 vssd1 vccd1 vccd1 sky130_fd_sc_hd__decap_4
XFILLER_10_61 vssd1 vssd1 vccd1 vccd1 sky130_fd_sc_hd__fill_1
XFILLER_10_83 vssd1 vssd1 vccd1 vccd1 sky130_fd_sc_hd__fill_1
Xoutput49 _083_/X vssd1 vssd1 vccd1 vccd1 print_output[20] sky130_fd_sc_hd__buf_2
Xoutput38 _063_/X vssd1 vssd1 vccd1 vccd1 print_output[10] sky130_fd_sc_hd__buf_2
Xclkbuf_0_clk clk vssd1 vssd1 vccd1 vccd1 clkbuf_0_clk/X sky130_fd_sc_hd__clkbuf_16
XPHY_2 vssd1 vssd1 vccd1 vccd1 sky130_fd_sc_hd__decap_3
XFILLER_11_7 vssd1 vssd1 vccd1 vccd1 sky130_fd_sc_hd__decap_12
XFILLER_13_108 vssd1 vssd1 vccd1 vccd1 sky130_fd_sc_hd__decap_4
XFILLER_7_84 vssd1 vssd1 vccd1 vccd1 sky130_fd_sc_hd__decap_12
XFILLER_16_60 vssd1 vssd1 vccd1 vccd1 sky130_fd_sc_hd__decap_6
XFILLER_12_29 vssd1 vssd1 vccd1 vccd1 sky130_fd_sc_hd__decap_12
XFILLER_4_52 vssd1 vssd1 vccd1 vccd1 sky130_fd_sc_hd__fill_2
XFILLER_4_85 vssd1 vssd1 vccd1 vccd1 sky130_fd_sc_hd__decap_12
XFILLER_2_129 vssd1 vssd1 vccd1 vccd1 sky130_fd_sc_hd__decap_6
XFILLER_13_61 vssd1 vssd1 vccd1 vccd1 sky130_fd_sc_hd__fill_1
XFILLER_18_39 vssd1 vssd1 vccd1 vccd1 sky130_fd_sc_hd__decap_4
X_097_ _097_/A vssd1 vssd1 vccd1 vccd1 _097_/X sky130_fd_sc_hd__clkbuf_1
Xoutput39 _065_/X vssd1 vssd1 vccd1 vccd1 print_output[11] sky130_fd_sc_hd__buf_2
XPHY_3 vssd1 vssd1 vccd1 vccd1 sky130_fd_sc_hd__decap_3
XFILLER_7_63 vssd1 vssd1 vccd1 vccd1 sky130_fd_sc_hd__decap_4
XFILLER_7_96 vssd1 vssd1 vccd1 vccd1 sky130_fd_sc_hd__decap_12
XFILLER_16_83 vssd1 vssd1 vccd1 vccd1 sky130_fd_sc_hd__fill_1
XFILLER_16_72 vssd1 vssd1 vccd1 vccd1 sky130_fd_sc_hd__decap_4
XFILLER_8_102 vssd1 vssd1 vccd1 vccd1 sky130_fd_sc_hd__decap_8
XFILLER_8_113 vssd1 vssd1 vccd1 vccd1 sky130_fd_sc_hd__decap_4
XFILLER_5_105 vssd1 vssd1 vccd1 vccd1 sky130_fd_sc_hd__decap_6
XFILLER_4_75 vssd1 vssd1 vccd1 vccd1 sky130_fd_sc_hd__decap_8
XFILLER_4_97 vssd1 vssd1 vccd1 vccd1 sky130_fd_sc_hd__decap_8
XANTENNA__100__A _108_/Q vssd1 vssd1 vccd1 vccd1 sky130_fd_sc_hd__diode_2
X_096_ _108_/Q _096_/B vssd1 vssd1 vccd1 vccd1 _097_/A sky130_fd_sc_hd__and2_1
XFILLER_1_87 vssd1 vssd1 vccd1 vccd1 sky130_fd_sc_hd__decap_4
XFILLER_1_65 vssd1 vssd1 vccd1 vccd1 sky130_fd_sc_hd__decap_4
X_079_ _079_/A vssd1 vssd1 vccd1 vccd1 _079_/X sky130_fd_sc_hd__clkbuf_1
XFILLER_16_129 vssd1 vssd1 vccd1 vccd1 sky130_fd_sc_hd__decap_6
XPHY_4 vssd1 vssd1 vccd1 vccd1 sky130_fd_sc_hd__decap_3
XFILLER_7_20 vssd1 vssd1 vccd1 vccd1 sky130_fd_sc_hd__decap_4
XFILLER_12_132 vssd1 vssd1 vccd1 vccd1 sky130_fd_sc_hd__decap_4
XANTENNA_input12_A data_core0[1] vssd1 vssd1 vccd1 vccd1 sky130_fd_sc_hd__diode_2
XFILLER_4_32 vssd1 vssd1 vccd1 vccd1 sky130_fd_sc_hd__decap_12
XFILLER_4_65 vssd1 vssd1 vccd1 vccd1 sky130_fd_sc_hd__decap_6
XANTENNA_input4_A data_core0[12] vssd1 vssd1 vccd1 vccd1 sky130_fd_sc_hd__diode_2
XFILLER_13_96 vssd1 vssd1 vccd1 vccd1 sky130_fd_sc_hd__decap_4
XFILLER_1_120 vssd1 vssd1 vccd1 vccd1 sky130_fd_sc_hd__decap_4
X_095_ _095_/A vssd1 vssd1 vccd1 vccd1 _095_/X sky130_fd_sc_hd__clkbuf_1
XFILLER_10_75 vssd1 vssd1 vccd1 vccd1 sky130_fd_sc_hd__decap_8
X_078_ _108_/Q _078_/B vssd1 vssd1 vccd1 vccd1 _079_/A sky130_fd_sc_hd__and2_1
XPHY_5 vssd1 vssd1 vccd1 vccd1 sky130_fd_sc_hd__decap_3
XFILLER_7_32 vssd1 vssd1 vccd1 vccd1 sky130_fd_sc_hd__decap_12
XFILLER_16_85 vssd1 vssd1 vccd1 vccd1 sky130_fd_sc_hd__fill_2
XFILLER_16_41 vssd1 vssd1 vccd1 vccd1 sky130_fd_sc_hd__fill_1
XFILLER_12_111 vssd1 vssd1 vccd1 vccd1 sky130_fd_sc_hd__decap_4
XFILLER_5_118 vssd1 vssd1 vccd1 vccd1 sky130_fd_sc_hd__decap_4
XFILLER_4_44 vssd1 vssd1 vccd1 vccd1 sky130_fd_sc_hd__decap_8
XFILLER_13_31 vssd1 vssd1 vccd1 vccd1 sky130_fd_sc_hd__decap_12
X_094_ _108_/Q _094_/B vssd1 vssd1 vccd1 vccd1 _095_/A sky130_fd_sc_hd__and2_1
XFILLER_1_45 vssd1 vssd1 vccd1 vccd1 sky130_fd_sc_hd__decap_4
XANTENNA_output36_A _108_/Q vssd1 vssd1 vccd1 vccd1 sky130_fd_sc_hd__diode_2
XFILLER_10_65 vssd1 vssd1 vccd1 vccd1 sky130_fd_sc_hd__decap_4
X_077_ _077_/A vssd1 vssd1 vccd1 vccd1 _077_/X sky130_fd_sc_hd__clkbuf_1
XPHY_6 vssd1 vssd1 vccd1 vccd1 sky130_fd_sc_hd__decap_3
XFILLER_7_44 vssd1 vssd1 vccd1 vccd1 sky130_fd_sc_hd__decap_12
XFILLER_16_97 vssd1 vssd1 vccd1 vccd1 sky130_fd_sc_hd__decap_4
XFILLER_16_53 vssd1 vssd1 vccd1 vccd1 sky130_fd_sc_hd__decap_4
XFILLER_4_56 vssd1 vssd1 vccd1 vccd1 sky130_fd_sc_hd__decap_4
XFILLER_13_87 vssd1 vssd1 vccd1 vccd1 sky130_fd_sc_hd__decap_6
XFILLER_13_65 vssd1 vssd1 vccd1 vccd1 sky130_fd_sc_hd__decap_12
XFILLER_13_43 vssd1 vssd1 vccd1 vccd1 sky130_fd_sc_hd__decap_12
X_093_ _093_/A vssd1 vssd1 vccd1 vccd1 _093_/X sky130_fd_sc_hd__clkbuf_1
XFILLER_1_57 vssd1 vssd1 vccd1 vccd1 sky130_fd_sc_hd__decap_3
Xinput1 data_core0[0] vssd1 vssd1 vccd1 vccd1 _042_/B sky130_fd_sc_hd__clkbuf_1
XFILLER_10_55 vssd1 vssd1 vccd1 vccd1 sky130_fd_sc_hd__decap_6
X_076_ _108_/Q _076_/B vssd1 vssd1 vccd1 vccd1 _077_/A sky130_fd_sc_hd__and2_1
XFILLER_15_132 vssd1 vssd1 vccd1 vccd1 sky130_fd_sc_hd__decap_4
XPHY_7 vssd1 vssd1 vccd1 vccd1 sky130_fd_sc_hd__decap_3
XANTENNA_input28_A data_core0[5] vssd1 vssd1 vccd1 vccd1 sky130_fd_sc_hd__diode_2
X_059_ _059_/A vssd1 vssd1 vccd1 vccd1 _059_/X sky130_fd_sc_hd__clkbuf_1
XFILLER_12_124 vssd1 vssd1 vccd1 vccd1 sky130_fd_sc_hd__decap_4
XFILLER_13_77 vssd1 vssd1 vccd1 vccd1 sky130_fd_sc_hd__decap_8
XFILLER_13_55 vssd1 vssd1 vccd1 vccd1 sky130_fd_sc_hd__fill_1
XANTENNA_input10_A data_core0[18] vssd1 vssd1 vccd1 vccd1 sky130_fd_sc_hd__diode_2
XFILLER_1_101 vssd1 vssd1 vccd1 vccd1 sky130_fd_sc_hd__decap_4
XANTENNA_input2_A data_core0[10] vssd1 vssd1 vccd1 vccd1 sky130_fd_sc_hd__diode_2
X_092_ _108_/Q _092_/B vssd1 vssd1 vccd1 vccd1 _093_/A sky130_fd_sc_hd__and2_1
XFILLER_1_36 vssd1 vssd1 vccd1 vccd1 sky130_fd_sc_hd__decap_4
XANTENNA__046__A _108_/Q vssd1 vssd1 vccd1 vccd1 sky130_fd_sc_hd__diode_2
Xinput2 data_core0[10] vssd1 vssd1 vccd1 vccd1 _062_/B sky130_fd_sc_hd__clkbuf_1
X_075_ _075_/A vssd1 vssd1 vccd1 vccd1 _075_/X sky130_fd_sc_hd__clkbuf_1
XFILLER_15_100 vssd1 vssd1 vccd1 vccd1 sky130_fd_sc_hd__decap_4
XFILLER_15_111 vssd1 vssd1 vccd1 vccd1 sky130_fd_sc_hd__fill_1
XPHY_8 vssd1 vssd1 vccd1 vccd1 sky130_fd_sc_hd__decap_3
X_058_ _108_/Q _058_/B vssd1 vssd1 vccd1 vccd1 _059_/A sky130_fd_sc_hd__and2_1
XFILLER_7_57 vssd1 vssd1 vccd1 vccd1 sky130_fd_sc_hd__decap_3
XFILLER_16_66 vssd1 vssd1 vccd1 vccd1 sky130_fd_sc_hd__fill_1
XFILLER_16_44 vssd1 vssd1 vccd1 vccd1 sky130_fd_sc_hd__decap_6
XANTENNA__054__A _108_/Q vssd1 vssd1 vccd1 vccd1 sky130_fd_sc_hd__diode_2
XFILLER_4_132 vssd1 vssd1 vccd1 vccd1 sky130_fd_sc_hd__decap_4
XFILLER_1_135 vssd1 vssd1 vccd1 vccd1 sky130_fd_sc_hd__fill_1
XFILLER_1_113 vssd1 vssd1 vccd1 vccd1 sky130_fd_sc_hd__decap_3
XFILLER_8_5 vssd1 vssd1 vccd1 vccd1 sky130_fd_sc_hd__decap_4
X_091_ _091_/A vssd1 vssd1 vccd1 vccd1 _091_/X sky130_fd_sc_hd__clkbuf_1
Xinput3 data_core0[11] vssd1 vssd1 vccd1 vccd1 _064_/B sky130_fd_sc_hd__clkbuf_1
XTAP_70 vssd1 vccd1 sky130_fd_sc_hd__tapvpwrvgnd_1
XANTENNA__062__A _108_/Q vssd1 vssd1 vccd1 vccd1 sky130_fd_sc_hd__diode_2
X_074_ _108_/Q _074_/B vssd1 vssd1 vccd1 vccd1 _075_/A sky130_fd_sc_hd__and2_1
XFILLER_10_46 vssd1 vssd1 vccd1 vccd1 sky130_fd_sc_hd__decap_4
XFILLER_18_120 vssd1 vssd1 vccd1 vccd1 sky130_fd_sc_hd__decap_4
XFILLER_18_7 vssd1 vssd1 vccd1 vccd1 sky130_fd_sc_hd__decap_4
XFILLER_2_91 vssd1 vssd1 vccd1 vccd1 sky130_fd_sc_hd__fill_1
XPHY_9 vssd1 vssd1 vccd1 vccd1 sky130_fd_sc_hd__decap_3
XFILLER_7_14 vssd1 vssd1 vccd1 vccd1 sky130_fd_sc_hd__decap_4
X_057_ _057_/A vssd1 vssd1 vccd1 vccd1 _057_/X sky130_fd_sc_hd__clkbuf_1
XFILLER_16_12 vssd1 vssd1 vccd1 vccd1 sky130_fd_sc_hd__decap_4
XFILLER_12_104 vssd1 vssd1 vccd1 vccd1 sky130_fd_sc_hd__decap_4
XANTENNA_input33_A req_core0 vssd1 vssd1 vccd1 vccd1 sky130_fd_sc_hd__diode_2
XANTENNA__038__C _108_/Q vssd1 vssd1 vccd1 vccd1 sky130_fd_sc_hd__diode_2
XFILLER_8_90 vssd1 vssd1 vccd1 vccd1 sky130_fd_sc_hd__decap_12
XANTENNA__070__A _108_/Q vssd1 vssd1 vccd1 vccd1 sky130_fd_sc_hd__diode_2
XFILLER_13_57 vssd1 vssd1 vccd1 vccd1 sky130_fd_sc_hd__decap_4
X_090_ _108_/Q _090_/B vssd1 vssd1 vccd1 vccd1 _091_/A sky130_fd_sc_hd__and2_1
XFILLER_1_27 vssd1 vssd1 vccd1 vccd1 sky130_fd_sc_hd__decap_4
Xinput4 data_core0[12] vssd1 vssd1 vccd1 vccd1 _066_/B sky130_fd_sc_hd__clkbuf_1
XTAP_71 vssd1 vccd1 sky130_fd_sc_hd__tapvpwrvgnd_1
XTAP_60 vssd1 vccd1 sky130_fd_sc_hd__tapvpwrvgnd_1
XFILLER_10_69 vssd1 vssd1 vccd1 vccd1 sky130_fd_sc_hd__fill_1
X_073_ _073_/A vssd1 vssd1 vccd1 vccd1 _073_/X sky130_fd_sc_hd__clkbuf_1
XFILLER_15_124 vssd1 vssd1 vccd1 vccd1 sky130_fd_sc_hd__decap_4
XFILLER_7_26 vssd1 vssd1 vccd1 vccd1 sky130_fd_sc_hd__decap_4
X_056_ _108_/Q _056_/B vssd1 vssd1 vccd1 vccd1 _057_/A sky130_fd_sc_hd__and2_1
XFILLER_16_79 vssd1 vssd1 vccd1 vccd1 sky130_fd_sc_hd__decap_4
XANTENNA_input26_A data_core0[3] vssd1 vssd1 vccd1 vccd1 sky130_fd_sc_hd__diode_2
XANTENNA__068__A _108_/Q vssd1 vssd1 vccd1 vccd1 sky130_fd_sc_hd__diode_2
X_108_ _108_/CLK _108_/D vssd1 vssd1 vccd1 vccd1 _108_/Q sky130_fd_sc_hd__dfxtp_4
X_039_ _039_/A vssd1 vssd1 vccd1 vccd1 _107_/D sky130_fd_sc_hd__clkbuf_1
XFILLER_4_27 vssd1 vssd1 vccd1 vccd1 sky130_fd_sc_hd__fill_1
XFILLER_5_81 vssd1 vssd1 vccd1 vccd1 sky130_fd_sc_hd__decap_12
XANTENNA__076__A _108_/Q vssd1 vssd1 vccd1 vccd1 sky130_fd_sc_hd__diode_2
Xinput5 data_core0[13] vssd1 vssd1 vccd1 vccd1 _068_/B sky130_fd_sc_hd__clkbuf_1
XTAP_72 vssd1 vccd1 sky130_fd_sc_hd__tapvpwrvgnd_1
XTAP_50 vssd1 vccd1 sky130_fd_sc_hd__tapvpwrvgnd_1
XFILLER_10_15 vssd1 vssd1 vccd1 vccd1 sky130_fd_sc_hd__decap_12
XFILLER_10_37 vssd1 vssd1 vccd1 vccd1 sky130_fd_sc_hd__decap_4
XTAP_61 vssd1 vccd1 sky130_fd_sc_hd__tapvpwrvgnd_1
X_072_ _108_/Q _072_/B vssd1 vssd1 vccd1 vccd1 _073_/A sky130_fd_sc_hd__and2_1
XFILLER_2_60 vssd1 vssd1 vccd1 vccd1 sky130_fd_sc_hd__decap_4
X_055_ _055_/A vssd1 vssd1 vccd1 vccd1 _055_/X sky130_fd_sc_hd__clkbuf_1
Xinput30 data_core0[7] vssd1 vssd1 vccd1 vccd1 _056_/B sky130_fd_sc_hd__clkbuf_1
XFILLER_16_6 vssd1 vssd1 vccd1 vccd1 sky130_fd_sc_hd__decap_4
XANTENNA__084__A _108_/Q vssd1 vssd1 vccd1 vccd1 sky130_fd_sc_hd__diode_2
XFILLER_12_117 vssd1 vssd1 vccd1 vccd1 sky130_fd_sc_hd__decap_4
XANTENNA_input19_A data_core0[26] vssd1 vssd1 vccd1 vccd1 sky130_fd_sc_hd__diode_2
XFILLER_14_3 vssd1 vssd1 vccd1 vccd1 sky130_fd_sc_hd__decap_12
X_107_ _107_/CLK _107_/D vssd1 vssd1 vccd1 vccd1 _107_/Q sky130_fd_sc_hd__dfxtp_1
X_038_ _040_/A _040_/B _108_/Q vssd1 vssd1 vccd1 vccd1 _039_/A sky130_fd_sc_hd__or3_1
XFILLER_7_121 vssd1 vssd1 vccd1 vccd1 sky130_fd_sc_hd__fill_1
XFILLER_7_132 vssd1 vssd1 vccd1 vccd1 sky130_fd_sc_hd__decap_4
XFILLER_17_90 vssd1 vssd1 vccd1 vccd1 sky130_fd_sc_hd__decap_4
XFILLER_4_124 vssd1 vssd1 vccd1 vccd1 sky130_fd_sc_hd__decap_4
XANTENNA__092__A _108_/Q vssd1 vssd1 vccd1 vccd1 sky130_fd_sc_hd__diode_2
XFILLER_5_93 vssd1 vssd1 vccd1 vccd1 sky130_fd_sc_hd__decap_12
XFILLER_14_80 vssd1 vssd1 vccd1 vccd1 sky130_fd_sc_hd__decap_4
Xinput6 data_core0[14] vssd1 vssd1 vccd1 vccd1 _070_/B sky130_fd_sc_hd__clkbuf_1
XTAP_73 vssd1 vccd1 sky130_fd_sc_hd__tapvpwrvgnd_1
XTAP_40 vssd1 vccd1 sky130_fd_sc_hd__tapvpwrvgnd_1
XTAP_51 vssd1 vccd1 sky130_fd_sc_hd__tapvpwrvgnd_1
XFILLER_10_27 vssd1 vssd1 vccd1 vccd1 sky130_fd_sc_hd__fill_1
XTAP_62 vssd1 vccd1 sky130_fd_sc_hd__tapvpwrvgnd_1
X_071_ _071_/A vssd1 vssd1 vccd1 vccd1 _071_/X sky130_fd_sc_hd__clkbuf_1
XFILLER_2_83 vssd1 vssd1 vccd1 vccd1 sky130_fd_sc_hd__fill_1
XFILLER_2_94 vssd1 vssd1 vccd1 vccd1 sky130_fd_sc_hd__decap_4
Xinput20 data_core0[27] vssd1 vssd1 vccd1 vccd1 _096_/B sky130_fd_sc_hd__clkbuf_1
X_054_ _108_/Q _054_/B vssd1 vssd1 vccd1 vccd1 _055_/A sky130_fd_sc_hd__and2_1
Xinput31 data_core0[8] vssd1 vssd1 vccd1 vccd1 _058_/B sky130_fd_sc_hd__clkbuf_1
XFILLER_16_26 vssd1 vssd1 vccd1 vccd1 sky130_fd_sc_hd__fill_2
X_106_ _106_/A vssd1 vssd1 vccd1 vccd1 _108_/D sky130_fd_sc_hd__clkinv_2
X_037_ _037_/A vssd1 vssd1 vccd1 vccd1 _040_/B sky130_fd_sc_hd__inv_2
XANTENNA_input31_A data_core0[8] vssd1 vssd1 vccd1 vccd1 sky130_fd_sc_hd__diode_2
XFILLER_17_80 vssd1 vssd1 vccd1 vccd1 sky130_fd_sc_hd__decap_4
XFILLER_5_50 vssd1 vssd1 vccd1 vccd1 sky130_fd_sc_hd__decap_6
XTAP_74 vssd1 vccd1 sky130_fd_sc_hd__tapvpwrvgnd_1
Xinput7 data_core0[15] vssd1 vssd1 vccd1 vccd1 _072_/B sky130_fd_sc_hd__clkbuf_1
XTAP_63 vssd1 vccd1 sky130_fd_sc_hd__tapvpwrvgnd_1
XTAP_41 vssd1 vccd1 sky130_fd_sc_hd__tapvpwrvgnd_1
XTAP_52 vssd1 vccd1 sky130_fd_sc_hd__tapvpwrvgnd_1
X_070_ _108_/Q _070_/B vssd1 vssd1 vccd1 vccd1 _071_/A sky130_fd_sc_hd__and2_1
XFILLER_18_135 vssd1 vssd1 vccd1 vccd1 sky130_fd_sc_hd__fill_1
XFILLER_18_113 vssd1 vssd1 vccd1 vccd1 sky130_fd_sc_hd__decap_3
Xclkbuf_1_1_0_clk clkbuf_0_clk/X vssd1 vssd1 vccd1 vccd1 _108_/CLK sky130_fd_sc_hd__clkbuf_2
XFILLER_15_116 vssd1 vssd1 vccd1 vccd1 sky130_fd_sc_hd__decap_4
XANTENNA__098__A _108_/Q vssd1 vssd1 vccd1 vccd1 sky130_fd_sc_hd__diode_2
X_053_ _053_/A vssd1 vssd1 vccd1 vccd1 _053_/X sky130_fd_sc_hd__clkbuf_1
Xinput32 data_core0[9] vssd1 vssd1 vccd1 vccd1 _060_/B sky130_fd_sc_hd__clkbuf_1
XFILLER_12_108 vssd1 vssd1 vccd1 vccd1 sky130_fd_sc_hd__fill_1
Xinput10 data_core0[18] vssd1 vssd1 vccd1 vccd1 _078_/B sky130_fd_sc_hd__clkbuf_1
Xinput21 data_core0[28] vssd1 vssd1 vccd1 vccd1 _098_/B sky130_fd_sc_hd__clkbuf_1
X_105_ _105_/A vssd1 vssd1 vccd1 vccd1 _105_/X sky130_fd_sc_hd__clkbuf_1
XFILLER_8_72 vssd1 vssd1 vccd1 vccd1 sky130_fd_sc_hd__decap_4
XFILLER_8_83 vssd1 vssd1 vccd1 vccd1 sky130_fd_sc_hd__fill_1
XFILLER_4_19 vssd1 vssd1 vccd1 vccd1 sky130_fd_sc_hd__decap_8
XFILLER_4_115 vssd1 vssd1 vccd1 vccd1 sky130_fd_sc_hd__decap_6
XANTENNA_input24_A data_core0[30] vssd1 vssd1 vccd1 vccd1 sky130_fd_sc_hd__diode_2
XFILLER_1_129 vssd1 vssd1 vccd1 vccd1 sky130_fd_sc_hd__decap_6
XFILLER_14_60 vssd1 vssd1 vccd1 vccd1 sky130_fd_sc_hd__decap_4
XFILLER_6_7 vssd1 vssd1 vccd1 vccd1 sky130_fd_sc_hd__decap_4
XTAP_75 vssd1 vccd1 sky130_fd_sc_hd__tapvpwrvgnd_1
XFILLER_14_93 vssd1 vssd1 vccd1 vccd1 sky130_fd_sc_hd__fill_1
XTAP_64 vssd1 vccd1 sky130_fd_sc_hd__tapvpwrvgnd_1
XTAP_42 vssd1 vccd1 sky130_fd_sc_hd__tapvpwrvgnd_1
XTAP_53 vssd1 vccd1 sky130_fd_sc_hd__tapvpwrvgnd_1
Xinput8 data_core0[16] vssd1 vssd1 vccd1 vccd1 _074_/B sky130_fd_sc_hd__clkbuf_1
XFILLER_10_29 vssd1 vssd1 vccd1 vccd1 sky130_fd_sc_hd__decap_6
XFILLER_18_103 vssd1 vssd1 vccd1 vccd1 sky130_fd_sc_hd__fill_1
X_052_ _108_/Q _052_/B vssd1 vssd1 vccd1 vccd1 _053_/A sky130_fd_sc_hd__and2_1
XFILLER_11_50 vssd1 vssd1 vccd1 vccd1 sky130_fd_sc_hd__decap_6
XFILLER_11_83 vssd1 vssd1 vccd1 vccd1 sky130_fd_sc_hd__decap_4
Xinput22 data_core0[29] vssd1 vssd1 vccd1 vccd1 _100_/B sky130_fd_sc_hd__clkbuf_1
Xinput11 data_core0[19] vssd1 vssd1 vccd1 vccd1 _080_/B sky130_fd_sc_hd__clkbuf_1
Xinput33 req_core0 vssd1 vssd1 vccd1 vccd1 _037_/A sky130_fd_sc_hd__clkbuf_1
X_104_ _108_/Q _104_/B vssd1 vssd1 vccd1 vccd1 _105_/A sky130_fd_sc_hd__and2_1
Xclkbuf_1_0_0_clk clkbuf_0_clk/X vssd1 vssd1 vccd1 vccd1 _107_/CLK sky130_fd_sc_hd__clkbuf_2
XFILLER_7_113 vssd1 vssd1 vccd1 vccd1 sky130_fd_sc_hd__decap_8
XFILLER_7_124 vssd1 vssd1 vccd1 vccd1 sky130_fd_sc_hd__decap_4
XFILLER_4_105 vssd1 vssd1 vccd1 vccd1 sky130_fd_sc_hd__fill_2
XFILLER_17_71 vssd1 vssd1 vccd1 vccd1 sky130_fd_sc_hd__decap_4
XANTENNA_input17_A data_core0[24] vssd1 vssd1 vccd1 vccd1 sky130_fd_sc_hd__diode_2
XFILLER_12_3 vssd1 vssd1 vccd1 vccd1 sky130_fd_sc_hd__decap_12
XFILLER_1_108 vssd1 vssd1 vccd1 vccd1 sky130_fd_sc_hd__decap_4
XANTENNA_input9_A data_core0[17] vssd1 vssd1 vccd1 vccd1 sky130_fd_sc_hd__diode_2
XTAP_76 vssd1 vccd1 sky130_fd_sc_hd__tapvpwrvgnd_1
XTAP_65 vssd1 vccd1 sky130_fd_sc_hd__tapvpwrvgnd_1
XTAP_43 vssd1 vccd1 sky130_fd_sc_hd__tapvpwrvgnd_1
Xinput9 data_core0[17] vssd1 vssd1 vccd1 vccd1 _076_/B sky130_fd_sc_hd__clkbuf_1
XTAP_54 vssd1 vccd1 sky130_fd_sc_hd__tapvpwrvgnd_1
XFILLER_2_75 vssd1 vssd1 vccd1 vccd1 sky130_fd_sc_hd__decap_8
XFILLER_2_20 vssd1 vssd1 vccd1 vccd1 sky130_fd_sc_hd__decap_8
XFILLER_15_107 vssd1 vssd1 vccd1 vccd1 sky130_fd_sc_hd__decap_4
X_051_ _051_/A vssd1 vssd1 vccd1 vccd1 _051_/X sky130_fd_sc_hd__clkbuf_1
Xinput12 data_core0[1] vssd1 vssd1 vccd1 vccd1 _044_/B sky130_fd_sc_hd__clkbuf_1
Xinput23 data_core0[2] vssd1 vssd1 vccd1 vccd1 _046_/B sky130_fd_sc_hd__clkbuf_1
Xinput34 reset vssd1 vssd1 vccd1 vccd1 _040_/A sky130_fd_sc_hd__clkbuf_1
XFILLER_16_29 vssd1 vssd1 vccd1 vccd1 sky130_fd_sc_hd__decap_12
XFILLER_16_18 vssd1 vssd1 vccd1 vccd1 sky130_fd_sc_hd__decap_8
X_103_ _103_/A vssd1 vssd1 vccd1 vccd1 _103_/X sky130_fd_sc_hd__clkbuf_1
XFILLER_8_41 vssd1 vssd1 vccd1 vccd1 sky130_fd_sc_hd__decap_12
XFILLER_8_63 vssd1 vssd1 vccd1 vccd1 sky130_fd_sc_hd__decap_4
XFILLER_8_85 vssd1 vssd1 vccd1 vccd1 sky130_fd_sc_hd__decap_3