* NGSPICE file created from regfile.ext - technology: sky130A

* Black-box entry subcircuit for sky130_fd_sc_hd__diode_2 abstract view
.subckt sky130_fd_sc_hd__diode_2 DIODE VGND VNB VPB VPWR
.ends

* Black-box entry subcircuit for sky130_fd_sc_hd__decap_4 abstract view
.subckt sky130_fd_sc_hd__decap_4 VGND VNB VPB VPWR
.ends

* Black-box entry subcircuit for sky130_fd_sc_hd__inv_2 abstract view
.subckt sky130_fd_sc_hd__inv_2 A VGND VNB VPB VPWR Y
.ends

* Black-box entry subcircuit for sky130_fd_sc_hd__o22ai_1 abstract view
.subckt sky130_fd_sc_hd__o22ai_1 A1 A2 B1 B2 VGND VNB VPB VPWR Y
.ends

* Black-box entry subcircuit for sky130_fd_sc_hd__fill_1 abstract view
.subckt sky130_fd_sc_hd__fill_1 VGND VNB VPB VPWR
.ends

* Black-box entry subcircuit for sky130_fd_sc_hd__buf_2 abstract view
.subckt sky130_fd_sc_hd__buf_2 A VGND VNB VPB VPWR X
.ends

* Black-box entry subcircuit for sky130_fd_sc_hd__buf_1 abstract view
.subckt sky130_fd_sc_hd__buf_1 A VGND VNB VPB VPWR X
.ends

* Black-box entry subcircuit for sky130_fd_sc_hd__decap_12 abstract view
.subckt sky130_fd_sc_hd__decap_12 VGND VNB VPB VPWR
.ends

* Black-box entry subcircuit for sky130_fd_sc_hd__decap_8 abstract view
.subckt sky130_fd_sc_hd__decap_8 VGND VNB VPB VPWR
.ends

* Black-box entry subcircuit for sky130_fd_sc_hd__decap_6 abstract view
.subckt sky130_fd_sc_hd__decap_6 VGND VNB VPB VPWR
.ends

* Black-box entry subcircuit for sky130_fd_sc_hd__fill_2 abstract view
.subckt sky130_fd_sc_hd__fill_2 VGND VNB VPB VPWR
.ends

* Black-box entry subcircuit for sky130_fd_sc_hd__mux4_1 abstract view
.subckt sky130_fd_sc_hd__mux4_1 A0 A1 A2 A3 S0 S1 VGND VNB VPB VPWR X
.ends

* Black-box entry subcircuit for sky130_fd_sc_hd__tapvpwrvgnd_1 abstract view
.subckt sky130_fd_sc_hd__tapvpwrvgnd_1 VGND VPWR
.ends

* Black-box entry subcircuit for sky130_fd_sc_hd__dfxtp_1 abstract view
.subckt sky130_fd_sc_hd__dfxtp_1 CLK D VGND VNB VPB VPWR Q
.ends

* Black-box entry subcircuit for sky130_fd_sc_hd__and2b_1 abstract view
.subckt sky130_fd_sc_hd__and2b_1 A_N B VGND VNB VPB VPWR X
.ends

* Black-box entry subcircuit for sky130_fd_sc_hd__buf_8 abstract view
.subckt sky130_fd_sc_hd__buf_8 A VGND VNB VPB VPWR X
.ends

* Black-box entry subcircuit for sky130_fd_sc_hd__or4_1 abstract view
.subckt sky130_fd_sc_hd__or4_1 A B C D VGND VNB VPB VPWR X
.ends

* Black-box entry subcircuit for sky130_fd_sc_hd__clkbuf_2 abstract view
.subckt sky130_fd_sc_hd__clkbuf_2 A VGND VNB VPB VPWR X
.ends

* Black-box entry subcircuit for sky130_fd_sc_hd__buf_4 abstract view
.subckt sky130_fd_sc_hd__buf_4 A VGND VNB VPB VPWR X
.ends

* Black-box entry subcircuit for sky130_fd_sc_hd__mux4_2 abstract view
.subckt sky130_fd_sc_hd__mux4_2 A0 A1 A2 A3 S0 S1 VGND VNB VPB VPWR X
.ends

* Black-box entry subcircuit for sky130_fd_sc_hd__decap_3 abstract view
.subckt sky130_fd_sc_hd__decap_3 VGND VNB VPB VPWR
.ends

* Black-box entry subcircuit for sky130_fd_sc_hd__buf_6 abstract view
.subckt sky130_fd_sc_hd__buf_6 A VGND VNB VPB VPWR X
.ends

* Black-box entry subcircuit for sky130_fd_sc_hd__clkbuf_1 abstract view
.subckt sky130_fd_sc_hd__clkbuf_1 A VGND VNB VPB VPWR X
.ends

* Black-box entry subcircuit for sky130_fd_sc_hd__mux2_2 abstract view
.subckt sky130_fd_sc_hd__mux2_2 A0 A1 S VGND VNB VPB VPWR X
.ends

* Black-box entry subcircuit for sky130_fd_sc_hd__or2b_4 abstract view
.subckt sky130_fd_sc_hd__or2b_4 A B_N VGND VNB VPB VPWR X
.ends

* Black-box entry subcircuit for sky130_fd_sc_hd__clkbuf_4 abstract view
.subckt sky130_fd_sc_hd__clkbuf_4 A VGND VNB VPB VPWR X
.ends

* Black-box entry subcircuit for sky130_fd_sc_hd__or2b_2 abstract view
.subckt sky130_fd_sc_hd__or2b_2 A B_N VGND VNB VPB VPWR X
.ends

* Black-box entry subcircuit for sky130_fd_sc_hd__dlymetal6s2s_1 abstract view
.subckt sky130_fd_sc_hd__dlymetal6s2s_1 A VGND VNB VPB VPWR X
.ends

* Black-box entry subcircuit for sky130_fd_sc_hd__dfxtp_2 abstract view
.subckt sky130_fd_sc_hd__dfxtp_2 CLK D VGND VNB VPB VPWR Q
.ends

* Black-box entry subcircuit for sky130_fd_sc_hd__mux2_1 abstract view
.subckt sky130_fd_sc_hd__mux2_1 A0 A1 S VGND VNB VPB VPWR X
.ends

* Black-box entry subcircuit for sky130_fd_sc_hd__or2_4 abstract view
.subckt sky130_fd_sc_hd__or2_4 A B VGND VNB VPB VPWR X
.ends

* Black-box entry subcircuit for sky130_fd_sc_hd__mux2_4 abstract view
.subckt sky130_fd_sc_hd__mux2_4 A0 A1 S VGND VNB VPB VPWR X
.ends

* Black-box entry subcircuit for sky130_fd_sc_hd__or3_1 abstract view
.subckt sky130_fd_sc_hd__or3_1 A B C VGND VNB VPB VPWR X
.ends

* Black-box entry subcircuit for sky130_fd_sc_hd__buf_12 abstract view
.subckt sky130_fd_sc_hd__buf_12 A VGND VNB VPB VPWR X
.ends

* Black-box entry subcircuit for sky130_fd_sc_hd__or2b_1 abstract view
.subckt sky130_fd_sc_hd__or2b_1 A B_N VGND VNB VPB VPWR X
.ends

* Black-box entry subcircuit for sky130_fd_sc_hd__mux2_8 abstract view
.subckt sky130_fd_sc_hd__mux2_8 A0 A1 S VGND VNB VPB VPWR X
.ends

* Black-box entry subcircuit for sky130_fd_sc_hd__clkbuf_16 abstract view
.subckt sky130_fd_sc_hd__clkbuf_16 A VGND VNB VPB VPWR X
.ends

* Black-box entry subcircuit for sky130_fd_sc_hd__or3b_2 abstract view
.subckt sky130_fd_sc_hd__or3b_2 A B C_N VGND VNB VPB VPWR X
.ends

* Black-box entry subcircuit for sky130_fd_sc_hd__clkbuf_8 abstract view
.subckt sky130_fd_sc_hd__clkbuf_8 A VGND VNB VPB VPWR X
.ends

* Black-box entry subcircuit for sky130_fd_sc_hd__o21ai_2 abstract view
.subckt sky130_fd_sc_hd__o21ai_2 A1 A2 B1 VGND VNB VPB VPWR Y
.ends

* Black-box entry subcircuit for sky130_fd_sc_hd__o21ba_4 abstract view
.subckt sky130_fd_sc_hd__o21ba_4 A1 A2 B1_N VGND VNB VPB VPWR X
.ends

* Black-box entry subcircuit for sky130_fd_sc_hd__or4_2 abstract view
.subckt sky130_fd_sc_hd__or4_2 A B C D VGND VNB VPB VPWR X
.ends

* Black-box entry subcircuit for sky130_fd_sc_hd__o22ai_2 abstract view
.subckt sky130_fd_sc_hd__o22ai_2 A1 A2 B1 B2 VGND VNB VPB VPWR Y
.ends

* Black-box entry subcircuit for sky130_fd_sc_hd__o22ai_4 abstract view
.subckt sky130_fd_sc_hd__o22ai_4 A1 A2 B1 B2 VGND VNB VPB VPWR Y
.ends

* Black-box entry subcircuit for sky130_fd_sc_hd__o41a_1 abstract view
.subckt sky130_fd_sc_hd__o41a_1 A1 A2 A3 A4 B1 VGND VNB VPB VPWR X
.ends

* Black-box entry subcircuit for sky130_fd_sc_hd__or2_1 abstract view
.subckt sky130_fd_sc_hd__or2_1 A B VGND VNB VPB VPWR X
.ends

* Black-box entry subcircuit for sky130_fd_sc_hd__o22a_1 abstract view
.subckt sky130_fd_sc_hd__o22a_1 A1 A2 B1 B2 VGND VNB VPB VPWR X
.ends

.subckt regfile a[0] a[10] a[11] a[12] a[13] a[14] a[15] a[16] a[17] a[18] a[19] a[1]
+ a[20] a[21] a[22] a[23] a[24] a[25] a[26] a[27] a[28] a[29] a[2] a[30] a[31] a[3]
+ a[4] a[5] a[6] a[7] a[8] a[9] addr_a[0] addr_a[1] addr_a[2] addr_a[3] addr_a[4]
+ addr_b[0] addr_b[1] addr_b[2] addr_b[3] addr_b[4] addr_d[0] addr_d[1] addr_d[2]
+ addr_d[3] addr_d[4] b[0] b[10] b[11] b[12] b[13] b[14] b[15] b[16] b[17] b[18] b[19]
+ b[1] b[20] b[21] b[22] b[23] b[24] b[25] b[26] b[27] b[28] b[29] b[2] b[30] b[31]
+ b[3] b[4] b[5] b[6] b[7] b[8] b[9] clk d[0] d[10] d[11] d[12] d[13] d[14] d[15]
+ d[16] d[17] d[18] d[19] d[1] d[20] d[21] d[22] d[23] d[24] d[25] d[26] d[27] d[28]
+ d[29] d[2] d[30] d[31] d[3] d[4] d[5] d[6] d[7] d[8] d[9] dest_read[0] dest_read[1]
+ dest_read[2] dest_read[3] dest_read[4] dest_value[0] dest_value[10] dest_value[11]
+ dest_value[12] dest_value[13] dest_value[14] dest_value[15] dest_value[16] dest_value[17]
+ dest_value[18] dest_value[19] dest_value[1] dest_value[20] dest_value[21] dest_value[22]
+ dest_value[23] dest_value[24] dest_value[25] dest_value[26] dest_value[27] dest_value[28]
+ dest_value[29] dest_value[2] dest_value[30] dest_value[31] dest_value[3] dest_value[4]
+ dest_value[5] dest_value[6] dest_value[7] dest_value[8] dest_value[9] reset vccd1
+ vssd1 wrd
XANTENNA__12202__S1 input51/X vssd1 vssd1 vccd1 vccd1 sky130_fd_sc_hd__diode_2
XFILLER_28_907 vssd1 vssd1 vccd1 vccd1 sky130_fd_sc_hd__decap_4
X_06883_ _13165_/Q vssd1 vssd1 vccd1 vccd1 _06883_/Y sky130_fd_sc_hd__inv_2
X_09671_ _09668_/Y _09669_/X _09511_/X _09670_/X vssd1 vssd1 vccd1 vccd1 _12614_/D
+ sky130_fd_sc_hd__o22ai_1
XFILLER_95_862 vssd1 vssd1 vccd1 vccd1 sky130_fd_sc_hd__decap_4
XFILLER_95_884 vssd1 vssd1 vccd1 vccd1 sky130_fd_sc_hd__decap_4
XFILLER_95_895 vssd1 vssd1 vccd1 vccd1 sky130_fd_sc_hd__fill_1
X_08622_ _09414_/A vssd1 vssd1 vccd1 vccd1 _08622_/X sky130_fd_sc_hd__buf_2
XANTENNA__11961__S0 _11966_/S0 vssd1 vssd1 vccd1 vccd1 sky130_fd_sc_hd__diode_2
XFILLER_27_428 vssd1 vssd1 vccd1 vccd1 sky130_fd_sc_hd__fill_1
XFILLER_36_940 vssd1 vssd1 vccd1 vccd1 sky130_fd_sc_hd__decap_4
XANTENNA__07613__A _08124_/A vssd1 vssd1 vccd1 vccd1 sky130_fd_sc_hd__diode_2
X_08553_ _08552_/Y _08538_/X _07940_/X _08539_/X vssd1 vssd1 vccd1 vccd1 _12835_/D
+ sky130_fd_sc_hd__o22ai_1
XFILLER_35_461 vssd1 vssd1 vccd1 vccd1 sky130_fd_sc_hd__decap_4
XFILLER_23_612 vssd1 vssd1 vccd1 vccd1 sky130_fd_sc_hd__decap_4
XANTENNA__11135__A _11135_/A vssd1 vssd1 vccd1 vccd1 sky130_fd_sc_hd__diode_2
XANTENNA__11713__S0 _11766_/S0 vssd1 vssd1 vccd1 vccd1 sky130_fd_sc_hd__diode_2
X_07504_ _07516_/A vssd1 vssd1 vccd1 vccd1 _07505_/A sky130_fd_sc_hd__buf_1
X_08484_ _08483_/Y _08468_/X _07855_/X _08469_/X vssd1 vssd1 vccd1 vccd1 _12850_/D
+ sky130_fd_sc_hd__o22ai_1
XFILLER_35_494 vssd1 vssd1 vccd1 vccd1 sky130_fd_sc_hd__decap_4
XANTENNA__06229__A _06247_/A vssd1 vssd1 vccd1 vccd1 sky130_fd_sc_hd__diode_2
XFILLER_22_122 vssd1 vssd1 vccd1 vccd1 sky130_fd_sc_hd__decap_4
XFILLER_62_291 vssd1 vssd1 vccd1 vccd1 sky130_fd_sc_hd__decap_4
X_07435_ _07435_/A vssd1 vssd1 vccd1 vccd1 _07435_/X sky130_fd_sc_hd__buf_1
XFILLER_11_818 vssd1 vssd1 vccd1 vccd1 sky130_fd_sc_hd__decap_12
XFILLER_50_464 vssd1 vssd1 vccd1 vccd1 sky130_fd_sc_hd__decap_4
XANTENNA__12269__S1 _12286_/S1 vssd1 vssd1 vccd1 vccd1 sky130_fd_sc_hd__diode_2
XFILLER_50_475 vssd1 vssd1 vccd1 vccd1 sky130_fd_sc_hd__fill_1
XFILLER_22_188 vssd1 vssd1 vccd1 vccd1 sky130_fd_sc_hd__decap_8
X_07366_ _13078_/Q vssd1 vssd1 vccd1 vccd1 _07366_/Y sky130_fd_sc_hd__inv_2
XFILLER_50_497 vssd1 vssd1 vccd1 vccd1 sky130_fd_sc_hd__decap_4
XFILLER_136_503 vssd1 vssd1 vccd1 vccd1 sky130_fd_sc_hd__decap_4
X_09105_ _09104_/Y _09087_/X _08627_/X _09088_/X vssd1 vssd1 vccd1 vccd1 _12726_/D
+ sky130_fd_sc_hd__o22ai_1
X_06317_ _13281_/Q vssd1 vssd1 vccd1 vccd1 _06317_/Y sky130_fd_sc_hd__inv_2
XFILLER_149_897 vssd1 vssd1 vccd1 vccd1 sky130_fd_sc_hd__decap_12
XANTENNA__08262__A2 _08164_/A vssd1 vssd1 vccd1 vccd1 sky130_fd_sc_hd__diode_2
X_07297_ _07296_/Y _07287_/X _07136_/X _07288_/X vssd1 vssd1 vccd1 vccd1 _13092_/D
+ sky130_fd_sc_hd__o22ai_1
X_09036_ _09052_/A vssd1 vssd1 vccd1 vccd1 _09037_/A sky130_fd_sc_hd__buf_1
X_06248_ _06248_/A vssd1 vssd1 vccd1 vccd1 _06248_/X sky130_fd_sc_hd__buf_1
XFILLER_123_208 vssd1 vssd1 vccd1 vccd1 sky130_fd_sc_hd__decap_4
XFILLER_104_400 vssd1 vssd1 vccd1 vccd1 sky130_fd_sc_hd__decap_6
XFILLER_151_539 vssd1 vssd1 vccd1 vccd1 sky130_fd_sc_hd__decap_4
X_06179_ _06179_/A vssd1 vssd1 vccd1 vccd1 _06179_/X sky130_fd_sc_hd__buf_1
XANTENNA__06899__A _06899_/A vssd1 vssd1 vccd1 vccd1 sky130_fd_sc_hd__diode_2
XFILLER_132_731 vssd1 vssd1 vccd1 vccd1 sky130_fd_sc_hd__decap_4
XFILLER_89_122 vssd1 vssd1 vccd1 vccd1 sky130_fd_sc_hd__fill_1
XFILLER_89_133 vssd1 vssd1 vccd1 vccd1 sky130_fd_sc_hd__decap_12
XFILLER_117_55 vssd1 vssd1 vccd1 vccd1 sky130_fd_sc_hd__fill_1
XFILLER_131_230 vssd1 vssd1 vccd1 vccd1 sky130_fd_sc_hd__decap_8
XANTENNA__09762__A2 _09751_/X vssd1 vssd1 vccd1 vccd1 sky130_fd_sc_hd__diode_2
XFILLER_132_775 vssd1 vssd1 vccd1 vccd1 sky130_fd_sc_hd__fill_1
XFILLER_89_166 vssd1 vssd1 vccd1 vccd1 sky130_fd_sc_hd__fill_2
XFILLER_131_263 vssd1 vssd1 vccd1 vccd1 sky130_fd_sc_hd__decap_4
XANTENNA__07773__B2 _07677_/A vssd1 vssd1 vccd1 vccd1 sky130_fd_sc_hd__diode_2
XANTENNA__10109__B1 _09490_/X vssd1 vssd1 vccd1 vccd1 sky130_fd_sc_hd__diode_2
X_09938_ _09938_/A vssd1 vssd1 vccd1 vccd1 _09938_/X sky130_fd_sc_hd__buf_1
XFILLER_77_339 vssd1 vssd1 vccd1 vccd1 sky130_fd_sc_hd__decap_8
X_09869_ _09869_/A vssd1 vssd1 vccd1 vccd1 _09869_/X sky130_fd_sc_hd__buf_1
XFILLER_92_309 vssd1 vssd1 vccd1 vccd1 sky130_fd_sc_hd__decap_8
XFILLER_133_54 vssd1 vssd1 vccd1 vccd1 sky130_fd_sc_hd__fill_2
XFILLER_19_929 vssd1 vssd1 vccd1 vccd1 sky130_fd_sc_hd__decap_4
XANTENNA__11952__S0 input8/X vssd1 vssd1 vccd1 vccd1 sky130_fd_sc_hd__diode_2
X_11900_ _13273_/Q _13305_/Q _12377_/Q _12409_/Q input6/X _11961_/S1 vssd1 vssd1 vccd1
+ vccd1 _11900_/X sky130_fd_sc_hd__mux4_1
XTAP_2501 vssd1 vccd1 sky130_fd_sc_hd__tapvpwrvgnd_1
X_12880_ _08338_/X _12880_/D vssd1 vssd1 vccd1 vccd1 _12880_/Q sky130_fd_sc_hd__dfxtp_1
XFILLER_46_759 vssd1 vssd1 vccd1 vccd1 sky130_fd_sc_hd__decap_6
XTAP_2512 vssd1 vccd1 sky130_fd_sc_hd__tapvpwrvgnd_1
XTAP_2523 vssd1 vccd1 sky130_fd_sc_hd__tapvpwrvgnd_1
XTAP_2534 vssd1 vccd1 sky130_fd_sc_hd__tapvpwrvgnd_1
XFILLER_61_707 vssd1 vssd1 vccd1 vccd1 sky130_fd_sc_hd__decap_4
X_11831_ _12434_/Q _12466_/Q _12498_/Q _12530_/Q _11899_/S0 _11905_/S1 vssd1 vssd1
+ vccd1 vccd1 _11831_/X sky130_fd_sc_hd__mux4_1
XTAP_2545 vssd1 vccd1 sky130_fd_sc_hd__tapvpwrvgnd_1
XTAP_1800 vssd1 vccd1 sky130_fd_sc_hd__tapvpwrvgnd_1
XTAP_2556 vssd1 vccd1 sky130_fd_sc_hd__tapvpwrvgnd_1
XTAP_1811 vssd1 vccd1 sky130_fd_sc_hd__tapvpwrvgnd_1
XFILLER_14_601 vssd1 vssd1 vccd1 vccd1 sky130_fd_sc_hd__decap_4
XTAP_1822 vssd1 vccd1 sky130_fd_sc_hd__tapvpwrvgnd_1
XANTENNA__11704__S0 _11766_/S0 vssd1 vssd1 vccd1 vccd1 sky130_fd_sc_hd__diode_2
XTAP_2567 vssd1 vccd1 sky130_fd_sc_hd__tapvpwrvgnd_1
XANTENNA__11085__A1 input53/X vssd1 vssd1 vccd1 vccd1 sky130_fd_sc_hd__diode_2
XTAP_2578 vssd1 vccd1 sky130_fd_sc_hd__tapvpwrvgnd_1
XTAP_1833 vssd1 vccd1 sky130_fd_sc_hd__tapvpwrvgnd_1
X_11762_ _11758_/X _11759_/X _11760_/X _11761_/X input8/X input9/X vssd1 vssd1 vccd1
+ vccd1 _11762_/X sky130_fd_sc_hd__mux4_1
XTAP_2589 vssd1 vccd1 sky130_fd_sc_hd__tapvpwrvgnd_1
XFILLER_26_85 vssd1 vssd1 vccd1 vccd1 sky130_fd_sc_hd__fill_1
XFILLER_14_634 vssd1 vssd1 vccd1 vccd1 sky130_fd_sc_hd__fill_1
XTAP_1844 vssd1 vccd1 sky130_fd_sc_hd__tapvpwrvgnd_1
XTAP_1855 vssd1 vccd1 sky130_fd_sc_hd__tapvpwrvgnd_1
XFILLER_13_122 vssd1 vssd1 vccd1 vccd1 sky130_fd_sc_hd__decap_4
XTAP_1866 vssd1 vccd1 sky130_fd_sc_hd__tapvpwrvgnd_1
XFILLER_41_442 vssd1 vssd1 vccd1 vccd1 sky130_fd_sc_hd__decap_6
XFILLER_41_453 vssd1 vssd1 vccd1 vccd1 sky130_fd_sc_hd__fill_1
X_10713_ _10712_/Y _10695_/X _10241_/X _10696_/X vssd1 vssd1 vccd1 vccd1 _12401_/D
+ sky130_fd_sc_hd__o22ai_1
XTAP_1877 vssd1 vccd1 sky130_fd_sc_hd__tapvpwrvgnd_1
XFILLER_14_678 vssd1 vssd1 vccd1 vccd1 sky130_fd_sc_hd__decap_4
XFILLER_13_155 vssd1 vssd1 vccd1 vccd1 sky130_fd_sc_hd__decap_4
XTAP_1888 vssd1 vccd1 sky130_fd_sc_hd__tapvpwrvgnd_1
XFILLER_9_104 vssd1 vssd1 vccd1 vccd1 sky130_fd_sc_hd__decap_8
X_11693_ _12548_/Q _12580_/Q _12612_/Q _12644_/Q _11766_/S0 _11814_/S1 vssd1 vssd1
+ vccd1 vccd1 _11693_/X sky130_fd_sc_hd__mux4_1
XTAP_1899 vssd1 vccd1 sky130_fd_sc_hd__tapvpwrvgnd_1
XFILLER_41_475 vssd1 vssd1 vccd1 vccd1 sky130_fd_sc_hd__decap_4
X_10644_ _12415_/Q vssd1 vssd1 vccd1 vccd1 _10644_/Y sky130_fd_sc_hd__inv_2
XFILLER_155_812 vssd1 vssd1 vccd1 vccd1 sky130_fd_sc_hd__fill_1
XFILLER_10_862 vssd1 vssd1 vccd1 vccd1 sky130_fd_sc_hd__decap_6
XFILLER_127_525 vssd1 vssd1 vccd1 vccd1 sky130_fd_sc_hd__fill_1
X_10575_ _10575_/A vssd1 vssd1 vccd1 vccd1 _10575_/X sky130_fd_sc_hd__buf_1
XFILLER_154_344 vssd1 vssd1 vccd1 vccd1 sky130_fd_sc_hd__decap_4
X_12314_ _11109_/X _12314_/D vssd1 vssd1 vccd1 vccd1 _12314_/Q sky130_fd_sc_hd__dfxtp_1
XFILLER_5_332 vssd1 vssd1 vccd1 vccd1 sky130_fd_sc_hd__decap_4
X_13294_ _06230_/X _13294_/D vssd1 vssd1 vccd1 vccd1 _13294_/Q sky130_fd_sc_hd__dfxtp_1
XFILLER_142_506 vssd1 vssd1 vccd1 vccd1 sky130_fd_sc_hd__fill_1
XFILLER_108_761 vssd1 vssd1 vccd1 vccd1 sky130_fd_sc_hd__decap_8
XFILLER_142_528 vssd1 vssd1 vccd1 vccd1 sky130_fd_sc_hd__decap_4
XFILLER_108_783 vssd1 vssd1 vccd1 vccd1 sky130_fd_sc_hd__fill_1
X_12245_ _12859_/Q _12891_/Q _12923_/Q _12955_/Q input48/X _12286_/S1 vssd1 vssd1
+ vccd1 vccd1 _12245_/X sky130_fd_sc_hd__mux4_1
XFILLER_108_794 vssd1 vssd1 vccd1 vccd1 sky130_fd_sc_hd__decap_6
XFILLER_122_230 vssd1 vssd1 vccd1 vccd1 sky130_fd_sc_hd__decap_4
XANTENNA__09753__A2 _09751_/X vssd1 vssd1 vccd1 vccd1 sky130_fd_sc_hd__diode_2
X_12176_ _12980_/Q _13012_/Q _13076_/Q _12308_/Q _12196_/S0 _12226_/S1 vssd1 vssd1
+ vccd1 vccd1 _12176_/X sky130_fd_sc_hd__mux4_1
XFILLER_123_775 vssd1 vssd1 vccd1 vccd1 sky130_fd_sc_hd__decap_8
XFILLER_96_615 vssd1 vssd1 vccd1 vccd1 sky130_fd_sc_hd__fill_1
XFILLER_68_317 vssd1 vssd1 vccd1 vccd1 sky130_fd_sc_hd__decap_4
XFILLER_110_414 vssd1 vssd1 vccd1 vccd1 sky130_fd_sc_hd__decap_6
X_11127_ _11145_/A vssd1 vssd1 vccd1 vccd1 _11128_/A sky130_fd_sc_hd__buf_1
XFILLER_150_594 vssd1 vssd1 vccd1 vccd1 sky130_fd_sc_hd__decap_4
XFILLER_68_339 vssd1 vssd1 vccd1 vccd1 sky130_fd_sc_hd__fill_1
XANTENNA__12196__S0 _12196_/S0 vssd1 vssd1 vccd1 vccd1 sky130_fd_sc_hd__diode_2
XANTENNA_output56_A _11242_/X vssd1 vssd1 vccd1 vccd1 sky130_fd_sc_hd__diode_2
XFILLER_95_158 vssd1 vssd1 vccd1 vccd1 sky130_fd_sc_hd__decap_8
X_11058_ input53/X _12325_/Q vssd1 vssd1 vccd1 vccd1 _11059_/A sky130_fd_sc_hd__and2b_1
XFILLER_77_873 vssd1 vssd1 vccd1 vccd1 sky130_fd_sc_hd__decap_6
XFILLER_95_169 vssd1 vssd1 vccd1 vccd1 sky130_fd_sc_hd__decap_12
XFILLER_110_469 vssd1 vssd1 vccd1 vccd1 sky130_fd_sc_hd__decap_6
XANTENNA__11943__S0 _11966_/S0 vssd1 vssd1 vccd1 vccd1 sky130_fd_sc_hd__diode_2
X_10009_ _10127_/A vssd1 vssd1 vccd1 vccd1 _10056_/A sky130_fd_sc_hd__buf_8
XFILLER_77_895 vssd1 vssd1 vccd1 vccd1 sky130_fd_sc_hd__fill_1
XFILLER_64_523 vssd1 vssd1 vccd1 vccd1 sky130_fd_sc_hd__decap_8
XFILLER_36_236 vssd1 vssd1 vccd1 vccd1 sky130_fd_sc_hd__decap_4
XFILLER_91_331 vssd1 vssd1 vccd1 vccd1 sky130_fd_sc_hd__decap_4
XFILLER_36_258 vssd1 vssd1 vccd1 vccd1 sky130_fd_sc_hd__decap_4
XFILLER_64_567 vssd1 vssd1 vccd1 vccd1 sky130_fd_sc_hd__decap_4
XFILLER_91_375 vssd1 vssd1 vccd1 vccd1 sky130_fd_sc_hd__decap_12
XFILLER_51_217 vssd1 vssd1 vccd1 vccd1 sky130_fd_sc_hd__fill_1
X_07220_ _07228_/A vssd1 vssd1 vccd1 vccd1 _07221_/A sky130_fd_sc_hd__buf_1
XFILLER_32_497 vssd1 vssd1 vccd1 vccd1 sky130_fd_sc_hd__decap_4
XANTENNA__12120__S0 _12196_/S0 vssd1 vssd1 vccd1 vccd1 sky130_fd_sc_hd__diode_2
X_07151_ _07151_/A vssd1 vssd1 vccd1 vccd1 _07151_/X sky130_fd_sc_hd__buf_1
XFILLER_118_536 vssd1 vssd1 vccd1 vccd1 sky130_fd_sc_hd__decap_6
XFILLER_146_856 vssd1 vssd1 vccd1 vccd1 sky130_fd_sc_hd__fill_1
X_06102_ input15/X _10004_/B _10004_/C input13/X vssd1 vssd1 vccd1 vccd1 _10796_/A
+ sky130_fd_sc_hd__or4_1
XFILLER_118_558 vssd1 vssd1 vccd1 vccd1 sky130_fd_sc_hd__decap_6
X_07082_ _07079_/Y _07053_/X _07081_/X _07056_/X vssd1 vssd1 vccd1 vccd1 _13132_/D
+ sky130_fd_sc_hd__o22ai_1
XFILLER_8_192 vssd1 vssd1 vccd1 vccd1 sky130_fd_sc_hd__decap_4
XFILLER_133_517 vssd1 vssd1 vccd1 vccd1 sky130_fd_sc_hd__decap_4
XFILLER_99_431 vssd1 vssd1 vccd1 vccd1 sky130_fd_sc_hd__decap_4
XFILLER_114_742 vssd1 vssd1 vccd1 vccd1 sky130_fd_sc_hd__decap_4
XFILLER_102_904 vssd1 vssd1 vccd1 vccd1 sky130_fd_sc_hd__decap_4
XFILLER_113_241 vssd1 vssd1 vccd1 vccd1 sky130_fd_sc_hd__decap_4
XFILLER_99_464 vssd1 vssd1 vccd1 vccd1 sky130_fd_sc_hd__decap_4
XFILLER_87_615 vssd1 vssd1 vccd1 vccd1 sky130_fd_sc_hd__fill_1
XFILLER_141_572 vssd1 vssd1 vccd1 vccd1 sky130_fd_sc_hd__decap_4
XFILLER_101_414 vssd1 vssd1 vccd1 vccd1 sky130_fd_sc_hd__decap_6
XFILLER_59_339 vssd1 vssd1 vccd1 vccd1 sky130_fd_sc_hd__decap_4
X_07984_ _12955_/Q vssd1 vssd1 vccd1 vccd1 _07984_/Y sky130_fd_sc_hd__inv_2
XFILLER_47_18 vssd1 vssd1 vccd1 vccd1 sky130_fd_sc_hd__fill_1
XFILLER_101_447 vssd1 vssd1 vccd1 vccd1 sky130_fd_sc_hd__fill_1
XANTENNA__12187__S0 input50/X vssd1 vssd1 vccd1 vccd1 sky130_fd_sc_hd__diode_2
X_09723_ _09722_/Y _09703_/X _09391_/X _09705_/X vssd1 vssd1 vccd1 vccd1 _12603_/D
+ sky130_fd_sc_hd__o22ai_1
XFILLER_47_29 vssd1 vssd1 vccd1 vccd1 sky130_fd_sc_hd__decap_4
X_06935_ _06943_/A vssd1 vssd1 vccd1 vccd1 _06936_/A sky130_fd_sc_hd__buf_1
XANTENNA__11934__S0 _11966_/S0 vssd1 vssd1 vccd1 vccd1 sky130_fd_sc_hd__diode_2
XFILLER_83_821 vssd1 vssd1 vccd1 vccd1 sky130_fd_sc_hd__decap_4
XFILLER_27_214 vssd1 vssd1 vccd1 vccd1 sky130_fd_sc_hd__decap_4
XFILLER_55_523 vssd1 vssd1 vccd1 vccd1 sky130_fd_sc_hd__decap_4
X_09654_ _09654_/A vssd1 vssd1 vccd1 vccd1 _09654_/X sky130_fd_sc_hd__buf_1
X_06866_ _06876_/A vssd1 vssd1 vccd1 vccd1 _06867_/A sky130_fd_sc_hd__buf_1
XFILLER_83_843 vssd1 vssd1 vccd1 vccd1 sky130_fd_sc_hd__decap_12
XFILLER_103_24 vssd1 vssd1 vccd1 vccd1 sky130_fd_sc_hd__decap_4
XFILLER_27_247 vssd1 vssd1 vccd1 vccd1 sky130_fd_sc_hd__decap_4
XFILLER_55_556 vssd1 vssd1 vccd1 vccd1 sky130_fd_sc_hd__decap_4
X_08605_ _08634_/A vssd1 vssd1 vccd1 vccd1 _08605_/X sky130_fd_sc_hd__clkbuf_2
XFILLER_103_57 vssd1 vssd1 vccd1 vccd1 sky130_fd_sc_hd__fill_2
XFILLER_27_269 vssd1 vssd1 vccd1 vccd1 sky130_fd_sc_hd__fill_1
X_09585_ _12632_/Q vssd1 vssd1 vccd1 vccd1 _09585_/Y sky130_fd_sc_hd__inv_2
X_06797_ _06915_/A vssd1 vssd1 vccd1 vccd1 _06846_/A sky130_fd_sc_hd__buf_4
XFILLER_103_68 vssd1 vssd1 vccd1 vccd1 sky130_fd_sc_hd__decap_6
XTAP_1107 vssd1 vccd1 sky130_fd_sc_hd__tapvpwrvgnd_1
XFILLER_55_589 vssd1 vssd1 vccd1 vccd1 sky130_fd_sc_hd__decap_4
XFILLER_63_28 vssd1 vssd1 vccd1 vccd1 sky130_fd_sc_hd__decap_4
XTAP_1118 vssd1 vccd1 sky130_fd_sc_hd__tapvpwrvgnd_1
XFILLER_36_781 vssd1 vssd1 vccd1 vccd1 sky130_fd_sc_hd__decap_4
XTAP_1129 vssd1 vccd1 sky130_fd_sc_hd__tapvpwrvgnd_1
X_08536_ _08536_/A vssd1 vssd1 vccd1 vccd1 _08536_/X sky130_fd_sc_hd__buf_1
XFILLER_35_291 vssd1 vssd1 vccd1 vccd1 sky130_fd_sc_hd__decap_4
XFILLER_51_751 vssd1 vssd1 vccd1 vccd1 sky130_fd_sc_hd__decap_4
XFILLER_144_7 vssd1 vssd1 vccd1 vccd1 sky130_fd_sc_hd__decap_4
X_08467_ _12853_/Q vssd1 vssd1 vccd1 vccd1 _08467_/Y sky130_fd_sc_hd__inv_2
XFILLER_11_615 vssd1 vssd1 vccd1 vccd1 sky130_fd_sc_hd__fill_1
XFILLER_11_626 vssd1 vssd1 vccd1 vccd1 sky130_fd_sc_hd__decap_4
X_07418_ _07441_/A vssd1 vssd1 vccd1 vccd1 _07418_/X sky130_fd_sc_hd__clkbuf_2
XFILLER_11_648 vssd1 vssd1 vccd1 vccd1 sky130_fd_sc_hd__fill_1
XFILLER_10_125 vssd1 vssd1 vccd1 vccd1 sky130_fd_sc_hd__decap_4
X_08398_ _08402_/A vssd1 vssd1 vccd1 vccd1 _08399_/A sky130_fd_sc_hd__buf_1
XFILLER_155_108 vssd1 vssd1 vccd1 vccd1 sky130_fd_sc_hd__decap_4
XFILLER_109_503 vssd1 vssd1 vccd1 vccd1 sky130_fd_sc_hd__fill_1
XANTENNA__12111__S0 _12196_/S0 vssd1 vssd1 vccd1 vccd1 sky130_fd_sc_hd__diode_2
XFILLER_10_147 vssd1 vssd1 vccd1 vccd1 sky130_fd_sc_hd__fill_1
X_07349_ _07372_/A vssd1 vssd1 vccd1 vccd1 _07349_/X sky130_fd_sc_hd__clkbuf_2
XFILLER_149_694 vssd1 vssd1 vccd1 vccd1 sky130_fd_sc_hd__decap_4
XFILLER_137_834 vssd1 vssd1 vccd1 vccd1 sky130_fd_sc_hd__decap_6
XFILLER_136_311 vssd1 vssd1 vccd1 vccd1 sky130_fd_sc_hd__decap_8
XFILLER_6_129 vssd1 vssd1 vccd1 vccd1 sky130_fd_sc_hd__fill_1
X_10360_ _10596_/A vssd1 vssd1 vccd1 vccd1 _10453_/A sky130_fd_sc_hd__buf_1
XFILLER_152_815 vssd1 vssd1 vccd1 vccd1 sky130_fd_sc_hd__decap_4
XFILLER_3_814 vssd1 vssd1 vccd1 vccd1 sky130_fd_sc_hd__decap_4
X_09019_ _12744_/Q vssd1 vssd1 vccd1 vccd1 _09019_/Y sky130_fd_sc_hd__inv_2
XFILLER_124_539 vssd1 vssd1 vccd1 vccd1 sky130_fd_sc_hd__decap_4
XFILLER_3_836 vssd1 vssd1 vccd1 vccd1 sky130_fd_sc_hd__decap_4
XFILLER_105_720 vssd1 vssd1 vccd1 vccd1 sky130_fd_sc_hd__decap_8
X_10291_ _12488_/Q vssd1 vssd1 vccd1 vccd1 _10291_/Y sky130_fd_sc_hd__inv_2
X_12030_ _13254_/Q _13286_/Q _12358_/Q _12390_/Q _12281_/S0 _12281_/S1 vssd1 vssd1
+ vccd1 vccd1 _12030_/X sky130_fd_sc_hd__mux4_1
XFILLER_151_358 vssd1 vssd1 vccd1 vccd1 sky130_fd_sc_hd__decap_4
XFILLER_104_230 vssd1 vssd1 vccd1 vccd1 sky130_fd_sc_hd__fill_1
XFILLER_78_648 vssd1 vssd1 vccd1 vccd1 sky130_fd_sc_hd__decap_8
XFILLER_104_285 vssd1 vssd1 vccd1 vccd1 sky130_fd_sc_hd__decap_4
XFILLER_77_125 vssd1 vssd1 vccd1 vccd1 sky130_fd_sc_hd__fill_1
XANTENNA__12178__S0 _12281_/S0 vssd1 vssd1 vccd1 vccd1 sky130_fd_sc_hd__diode_2
XFILLER_120_778 vssd1 vssd1 vccd1 vccd1 sky130_fd_sc_hd__decap_4
XFILLER_93_629 vssd1 vssd1 vccd1 vccd1 sky130_fd_sc_hd__decap_4
XANTENNA__11925__S0 _11966_/S0 vssd1 vssd1 vccd1 vccd1 sky130_fd_sc_hd__diode_2
XFILLER_46_523 vssd1 vssd1 vccd1 vccd1 sky130_fd_sc_hd__fill_1
XFILLER_74_832 vssd1 vssd1 vccd1 vccd1 sky130_fd_sc_hd__decap_8
X_12932_ _08090_/X _12932_/D vssd1 vssd1 vccd1 vccd1 _12932_/Q sky130_fd_sc_hd__dfxtp_1
XFILLER_19_759 vssd1 vssd1 vccd1 vccd1 sky130_fd_sc_hd__decap_4
XFILLER_18_236 vssd1 vssd1 vccd1 vccd1 sky130_fd_sc_hd__decap_4
XFILLER_73_342 vssd1 vssd1 vccd1 vccd1 sky130_fd_sc_hd__decap_4
XTAP_2320 vssd1 vccd1 sky130_fd_sc_hd__tapvpwrvgnd_1
X_12863_ _08416_/X _12863_/D vssd1 vssd1 vccd1 vccd1 _12863_/Q sky130_fd_sc_hd__dfxtp_1
XTAP_2331 vssd1 vccd1 sky130_fd_sc_hd__tapvpwrvgnd_1
XFILLER_74_898 vssd1 vssd1 vccd1 vccd1 sky130_fd_sc_hd__decap_4
XTAP_2342 vssd1 vccd1 sky130_fd_sc_hd__tapvpwrvgnd_1
XFILLER_27_770 vssd1 vssd1 vccd1 vccd1 sky130_fd_sc_hd__fill_1
XTAP_2353 vssd1 vccd1 sky130_fd_sc_hd__tapvpwrvgnd_1
XFILLER_73_386 vssd1 vssd1 vccd1 vccd1 sky130_fd_sc_hd__decap_6
X_11814_ _12720_/Q _12752_/Q _12784_/Q _12816_/Q _11899_/S0 _11814_/S1 vssd1 vssd1
+ vccd1 vccd1 _11814_/X sky130_fd_sc_hd__mux4_2
XTAP_2364 vssd1 vccd1 sky130_fd_sc_hd__tapvpwrvgnd_1
XFILLER_33_228 vssd1 vssd1 vccd1 vccd1 sky130_fd_sc_hd__decap_6
XTAP_2375 vssd1 vccd1 sky130_fd_sc_hd__tapvpwrvgnd_1
XFILLER_33_239 vssd1 vssd1 vccd1 vccd1 sky130_fd_sc_hd__decap_4
XTAP_1630 vssd1 vccd1 sky130_fd_sc_hd__tapvpwrvgnd_1
X_12794_ _08781_/X _12794_/D vssd1 vssd1 vccd1 vccd1 _12794_/Q sky130_fd_sc_hd__dfxtp_1
XTAP_1641 vssd1 vccd1 sky130_fd_sc_hd__tapvpwrvgnd_1
XTAP_2386 vssd1 vccd1 sky130_fd_sc_hd__tapvpwrvgnd_1
XTAP_2397 vssd1 vccd1 sky130_fd_sc_hd__tapvpwrvgnd_1
XTAP_1652 vssd1 vccd1 sky130_fd_sc_hd__tapvpwrvgnd_1
XTAP_1663 vssd1 vccd1 sky130_fd_sc_hd__tapvpwrvgnd_1
X_11745_ _12841_/Q _12873_/Q _12905_/Q _12937_/Q _11766_/S0 _11814_/S1 vssd1 vssd1
+ vccd1 vccd1 _11745_/X sky130_fd_sc_hd__mux4_1
XTAP_1674 vssd1 vccd1 sky130_fd_sc_hd__tapvpwrvgnd_1
XANTENNA__08474__A2 _08468_/X vssd1 vssd1 vccd1 vccd1 sky130_fd_sc_hd__diode_2
XTAP_1685 vssd1 vccd1 sky130_fd_sc_hd__tapvpwrvgnd_1
XFILLER_14_475 vssd1 vssd1 vccd1 vccd1 sky130_fd_sc_hd__fill_1
XTAP_1696 vssd1 vccd1 sky130_fd_sc_hd__tapvpwrvgnd_1
XFILLER_14_486 vssd1 vssd1 vccd1 vccd1 sky130_fd_sc_hd__decap_8
XFILLER_41_272 vssd1 vssd1 vccd1 vccd1 sky130_fd_sc_hd__decap_8
XFILLER_14_497 vssd1 vssd1 vccd1 vccd1 sky130_fd_sc_hd__decap_4
X_11676_ _12962_/Q _12994_/Q _13058_/Q _12290_/Q _11966_/S0 _11814_/S1 vssd1 vssd1
+ vccd1 vccd1 _11676_/X sky130_fd_sc_hd__mux4_1
XANTENNA__06184__B_N input29/X vssd1 vssd1 vccd1 vccd1 sky130_fd_sc_hd__diode_2
XANTENNA__12102__S0 input50/X vssd1 vssd1 vccd1 vccd1 sky130_fd_sc_hd__diode_2
XFILLER_128_834 vssd1 vssd1 vccd1 vccd1 sky130_fd_sc_hd__decap_8
X_10627_ _12419_/Q vssd1 vssd1 vccd1 vccd1 _10627_/Y sky130_fd_sc_hd__inv_2
XFILLER_155_620 vssd1 vssd1 vccd1 vccd1 sky130_fd_sc_hd__decap_4
XFILLER_128_845 vssd1 vssd1 vccd1 vccd1 sky130_fd_sc_hd__decap_4
XFILLER_128_867 vssd1 vssd1 vccd1 vccd1 sky130_fd_sc_hd__fill_1
X_10558_ _10557_/Y _10543_/X _10236_/X _10544_/X vssd1 vssd1 vccd1 vccd1 _12434_/D
+ sky130_fd_sc_hd__o22ai_1
XFILLER_155_675 vssd1 vssd1 vccd1 vccd1 sky130_fd_sc_hd__decap_4
XFILLER_127_366 vssd1 vssd1 vccd1 vccd1 sky130_fd_sc_hd__decap_4
XFILLER_6_674 vssd1 vssd1 vccd1 vccd1 sky130_fd_sc_hd__decap_4
XFILLER_155_697 vssd1 vssd1 vccd1 vccd1 sky130_fd_sc_hd__decap_4
XFILLER_142_325 vssd1 vssd1 vccd1 vccd1 sky130_fd_sc_hd__decap_8
XFILLER_115_539 vssd1 vssd1 vccd1 vccd1 sky130_fd_sc_hd__fill_1
X_13277_ _06344_/X _13277_/D vssd1 vssd1 vccd1 vccd1 _13277_/Q sky130_fd_sc_hd__dfxtp_1
XFILLER_6_696 vssd1 vssd1 vccd1 vccd1 sky130_fd_sc_hd__decap_4
XFILLER_142_336 vssd1 vssd1 vccd1 vccd1 sky130_fd_sc_hd__decap_8
XFILLER_5_184 vssd1 vssd1 vccd1 vccd1 sky130_fd_sc_hd__decap_4
X_10489_ _10488_/Y _10392_/A _10336_/X _10393_/A vssd1 vssd1 vccd1 vccd1 _12448_/D
+ sky130_fd_sc_hd__o22ai_1
X_12228_ _12346_/Q _12698_/Q _13050_/Q _13114_/Q _12281_/S0 _12281_/S1 vssd1 vssd1
+ vccd1 vccd1 _12228_/X sky130_fd_sc_hd__mux4_1
XFILLER_69_604 vssd1 vssd1 vccd1 vccd1 sky130_fd_sc_hd__decap_4
XFILLER_123_561 vssd1 vssd1 vccd1 vccd1 sky130_fd_sc_hd__decap_3
XFILLER_111_723 vssd1 vssd1 vccd1 vccd1 sky130_fd_sc_hd__decap_4
XFILLER_69_637 vssd1 vssd1 vccd1 vccd1 sky130_fd_sc_hd__decap_8
XFILLER_78_80 vssd1 vssd1 vccd1 vccd1 sky130_fd_sc_hd__decap_4
XFILLER_110_200 vssd1 vssd1 vccd1 vccd1 sky130_fd_sc_hd__decap_8
X_12159_ _13139_/Q _13171_/Q _13203_/Q _13235_/Q _12196_/S0 _12226_/S1 vssd1 vssd1
+ vccd1 vccd1 _12159_/X sky130_fd_sc_hd__mux4_1
XANTENNA__12169__S0 _12196_/S0 vssd1 vssd1 vccd1 vccd1 sky130_fd_sc_hd__diode_2
XANTENNA__10789__A _10807_/A vssd1 vssd1 vccd1 vccd1 sky130_fd_sc_hd__diode_2
XFILLER_84_629 vssd1 vssd1 vccd1 vccd1 sky130_fd_sc_hd__decap_4
XFILLER_110_277 vssd1 vssd1 vccd1 vccd1 sky130_fd_sc_hd__decap_4
XANTENNA__11916__S0 _11966_/S0 vssd1 vssd1 vccd1 vccd1 sky130_fd_sc_hd__diode_2
XFILLER_37_512 vssd1 vssd1 vccd1 vccd1 sky130_fd_sc_hd__fill_1
X_06720_ _06732_/A vssd1 vssd1 vccd1 vccd1 _06721_/A sky130_fd_sc_hd__buf_1
XFILLER_83_139 vssd1 vssd1 vccd1 vccd1 sky130_fd_sc_hd__decap_12
XFILLER_64_320 vssd1 vssd1 vccd1 vccd1 sky130_fd_sc_hd__decap_4
XFILLER_92_640 vssd1 vssd1 vccd1 vccd1 sky130_fd_sc_hd__decap_4
XFILLER_37_556 vssd1 vssd1 vccd1 vccd1 sky130_fd_sc_hd__decap_4
X_06651_ _06651_/A vssd1 vssd1 vccd1 vccd1 _06651_/X sky130_fd_sc_hd__buf_1
XANTENNA__11392__S1 input4/X vssd1 vssd1 vccd1 vccd1 sky130_fd_sc_hd__diode_2
XFILLER_52_504 vssd1 vssd1 vccd1 vccd1 sky130_fd_sc_hd__decap_4
XFILLER_80_813 vssd1 vssd1 vccd1 vccd1 sky130_fd_sc_hd__decap_12
XFILLER_91_150 vssd1 vssd1 vccd1 vccd1 sky130_fd_sc_hd__fill_1
XFILLER_92_684 vssd1 vssd1 vccd1 vccd1 sky130_fd_sc_hd__decap_4
XFILLER_91_172 vssd1 vssd1 vccd1 vccd1 sky130_fd_sc_hd__decap_8
X_06582_ _06581_/Y _06563_/X _06245_/X _06564_/X vssd1 vssd1 vccd1 vccd1 _13228_/D
+ sky130_fd_sc_hd__o22ai_1
XFILLER_24_239 vssd1 vssd1 vccd1 vccd1 sky130_fd_sc_hd__fill_1
X_09370_ _09426_/A vssd1 vssd1 vccd1 vccd1 _09370_/X sky130_fd_sc_hd__clkbuf_2