* NGSPICE file created from specialreg.ext - technology: sky130A

* Black-box entry subcircuit for sky130_fd_sc_hd__fill_1 abstract view
.subckt sky130_fd_sc_hd__fill_1 VGND VNB VPB VPWR
.ends

* Black-box entry subcircuit for sky130_fd_sc_hd__diode_2 abstract view
.subckt sky130_fd_sc_hd__diode_2 DIODE VGND VNB VPB VPWR
.ends

* Black-box entry subcircuit for sky130_fd_sc_hd__tapvpwrvgnd_1 abstract view
.subckt sky130_fd_sc_hd__tapvpwrvgnd_1 VGND VPWR
.ends

* Black-box entry subcircuit for sky130_fd_sc_hd__decap_4 abstract view
.subckt sky130_fd_sc_hd__decap_4 VGND VNB VPB VPWR
.ends

* Black-box entry subcircuit for sky130_fd_sc_hd__decap_6 abstract view
.subckt sky130_fd_sc_hd__decap_6 VGND VNB VPB VPWR
.ends

* Black-box entry subcircuit for sky130_fd_sc_hd__decap_8 abstract view
.subckt sky130_fd_sc_hd__decap_8 VGND VNB VPB VPWR
.ends

* Black-box entry subcircuit for sky130_fd_sc_hd__inv_2 abstract view
.subckt sky130_fd_sc_hd__inv_2 A VGND VNB VPB VPWR Y
.ends

* Black-box entry subcircuit for sky130_fd_sc_hd__fill_2 abstract view
.subckt sky130_fd_sc_hd__fill_2 VGND VNB VPB VPWR
.ends

* Black-box entry subcircuit for sky130_fd_sc_hd__buf_1 abstract view
.subckt sky130_fd_sc_hd__buf_1 A VGND VNB VPB VPWR X
.ends

* Black-box entry subcircuit for sky130_fd_sc_hd__dfxtp_2 abstract view
.subckt sky130_fd_sc_hd__dfxtp_2 CLK D VGND VNB VPB VPWR Q
.ends

* Black-box entry subcircuit for sky130_fd_sc_hd__or2b_1 abstract view
.subckt sky130_fd_sc_hd__or2b_1 A B_N VGND VNB VPB VPWR X
.ends

* Black-box entry subcircuit for sky130_fd_sc_hd__decap_12 abstract view
.subckt sky130_fd_sc_hd__decap_12 VGND VNB VPB VPWR
.ends

* Black-box entry subcircuit for sky130_fd_sc_hd__buf_2 abstract view
.subckt sky130_fd_sc_hd__buf_2 A VGND VNB VPB VPWR X
.ends

* Black-box entry subcircuit for sky130_fd_sc_hd__dlymetal6s2s_1 abstract view
.subckt sky130_fd_sc_hd__dlymetal6s2s_1 A VGND VNB VPB VPWR X
.ends

* Black-box entry subcircuit for sky130_fd_sc_hd__or4_1 abstract view
.subckt sky130_fd_sc_hd__or4_1 A B C D VGND VNB VPB VPWR X
.ends

* Black-box entry subcircuit for sky130_fd_sc_hd__o221a_1 abstract view
.subckt sky130_fd_sc_hd__o221a_1 A1 A2 B1 B2 C1 VGND VNB VPB VPWR X
.ends

* Black-box entry subcircuit for sky130_fd_sc_hd__o221ai_1 abstract view
.subckt sky130_fd_sc_hd__o221ai_1 A1 A2 B1 B2 C1 VGND VNB VPB VPWR Y
.ends

* Black-box entry subcircuit for sky130_fd_sc_hd__decap_3 abstract view
.subckt sky130_fd_sc_hd__decap_3 VGND VNB VPB VPWR
.ends

* Black-box entry subcircuit for sky130_fd_sc_hd__clkbuf_2 abstract view
.subckt sky130_fd_sc_hd__clkbuf_2 A VGND VNB VPB VPWR X
.ends

* Black-box entry subcircuit for sky130_fd_sc_hd__dfxtp_1 abstract view
.subckt sky130_fd_sc_hd__dfxtp_1 CLK D VGND VNB VPB VPWR Q
.ends

* Black-box entry subcircuit for sky130_fd_sc_hd__dfxtp_4 abstract view
.subckt sky130_fd_sc_hd__dfxtp_4 CLK D VGND VNB VPB VPWR Q
.ends

* Black-box entry subcircuit for sky130_fd_sc_hd__or2_1 abstract view
.subckt sky130_fd_sc_hd__or2_1 A B VGND VNB VPB VPWR X
.ends

* Black-box entry subcircuit for sky130_fd_sc_hd__o221ai_4 abstract view
.subckt sky130_fd_sc_hd__o221ai_4 A1 A2 B1 B2 C1 VGND VNB VPB VPWR Y
.ends

* Black-box entry subcircuit for sky130_fd_sc_hd__nand2_2 abstract view
.subckt sky130_fd_sc_hd__nand2_2 A B VGND VNB VPB VPWR Y
.ends

* Black-box entry subcircuit for sky130_fd_sc_hd__clkbuf_1 abstract view
.subckt sky130_fd_sc_hd__clkbuf_1 A VGND VNB VPB VPWR X
.ends

* Black-box entry subcircuit for sky130_fd_sc_hd__mux2_1 abstract view
.subckt sky130_fd_sc_hd__mux2_1 A0 A1 S VGND VNB VPB VPWR X
.ends

* Black-box entry subcircuit for sky130_fd_sc_hd__or3b_4 abstract view
.subckt sky130_fd_sc_hd__or3b_4 A B C_N VGND VNB VPB VPWR X
.ends

* Black-box entry subcircuit for sky130_fd_sc_hd__clkbuf_4 abstract view
.subckt sky130_fd_sc_hd__clkbuf_4 A VGND VNB VPB VPWR X
.ends

* Black-box entry subcircuit for sky130_fd_sc_hd__mux2_2 abstract view
.subckt sky130_fd_sc_hd__mux2_2 A0 A1 S VGND VNB VPB VPWR X
.ends

* Black-box entry subcircuit for sky130_fd_sc_hd__clkbuf_16 abstract view
.subckt sky130_fd_sc_hd__clkbuf_16 A VGND VNB VPB VPWR X
.ends

* Black-box entry subcircuit for sky130_fd_sc_hd__buf_12 abstract view
.subckt sky130_fd_sc_hd__buf_12 A VGND VNB VPB VPWR X
.ends

* Black-box entry subcircuit for sky130_fd_sc_hd__buf_4 abstract view
.subckt sky130_fd_sc_hd__buf_4 A VGND VNB VPB VPWR X
.ends

* Black-box entry subcircuit for sky130_fd_sc_hd__or4_2 abstract view
.subckt sky130_fd_sc_hd__or4_2 A B C D VGND VNB VPB VPWR X
.ends

* Black-box entry subcircuit for sky130_fd_sc_hd__and3_1 abstract view
.subckt sky130_fd_sc_hd__and3_1 A B C VGND VNB VPB VPWR X
.ends

* Black-box entry subcircuit for sky130_fd_sc_hd__or3_4 abstract view
.subckt sky130_fd_sc_hd__or3_4 A B C VGND VNB VPB VPWR X
.ends

* Black-box entry subcircuit for sky130_fd_sc_hd__o221ai_2 abstract view
.subckt sky130_fd_sc_hd__o221ai_2 A1 A2 B1 B2 C1 VGND VNB VPB VPWR Y
.ends

.subckt specialreg clk in_other_rm[0] in_other_rm[10] in_other_rm[11] in_other_rm[12]
+ in_other_rm[13] in_other_rm[14] in_other_rm[15] in_other_rm[16] in_other_rm[17]
+ in_other_rm[18] in_other_rm[19] in_other_rm[1] in_other_rm[20] in_other_rm[21] in_other_rm[22]
+ in_other_rm[23] in_other_rm[24] in_other_rm[25] in_other_rm[26] in_other_rm[27]
+ in_other_rm[28] in_other_rm[29] in_other_rm[2] in_other_rm[30] in_other_rm[31] in_other_rm[3]
+ in_other_rm[4] in_other_rm[5] in_other_rm[6] in_other_rm[7] in_other_rm[8] in_other_rm[9]
+ in_rm0[0] in_rm0[10] in_rm0[11] in_rm0[12] in_rm0[13] in_rm0[14] in_rm0[15] in_rm0[16]
+ in_rm0[17] in_rm0[18] in_rm0[19] in_rm0[1] in_rm0[20] in_rm0[21] in_rm0[22] in_rm0[23]
+ in_rm0[24] in_rm0[25] in_rm0[26] in_rm0[27] in_rm0[28] in_rm0[29] in_rm0[2] in_rm0[30]
+ in_rm0[31] in_rm0[3] in_rm0[4] in_rm0[5] in_rm0[6] in_rm0[7] in_rm0[8] in_rm0[9]
+ in_rm1[0] in_rm1[10] in_rm1[11] in_rm1[12] in_rm1[13] in_rm1[14] in_rm1[15] in_rm1[16]
+ in_rm1[17] in_rm1[18] in_rm1[19] in_rm1[1] in_rm1[20] in_rm1[21] in_rm1[22] in_rm1[23]
+ in_rm1[24] in_rm1[25] in_rm1[26] in_rm1[27] in_rm1[28] in_rm1[29] in_rm1[2] in_rm1[30]
+ in_rm1[31] in_rm1[3] in_rm1[4] in_rm1[5] in_rm1[6] in_rm1[7] in_rm1[8] in_rm1[9]
+ in_rm2[0] in_rm2[10] in_rm2[11] in_rm2[12] in_rm2[13] in_rm2[14] in_rm2[15] in_rm2[16]
+ in_rm2[17] in_rm2[18] in_rm2[19] in_rm2[1] in_rm2[20] in_rm2[21] in_rm2[22] in_rm2[23]
+ in_rm2[24] in_rm2[25] in_rm2[26] in_rm2[27] in_rm2[28] in_rm2[29] in_rm2[2] in_rm2[30]
+ in_rm2[31] in_rm2[3] in_rm2[4] in_rm2[5] in_rm2[6] in_rm2[7] in_rm2[8] in_rm2[9]
+ out_rm0[0] out_rm0[10] out_rm0[11] out_rm0[12] out_rm0[13] out_rm0[14] out_rm0[15]
+ out_rm0[16] out_rm0[17] out_rm0[18] out_rm0[19] out_rm0[1] out_rm0[20] out_rm0[21]
+ out_rm0[22] out_rm0[23] out_rm0[24] out_rm0[25] out_rm0[26] out_rm0[27] out_rm0[28]
+ out_rm0[29] out_rm0[2] out_rm0[30] out_rm0[31] out_rm0[3] out_rm0[4] out_rm0[5]
+ out_rm0[6] out_rm0[7] out_rm0[8] out_rm0[9] out_rm1[0] out_rm1[10] out_rm1[11] out_rm1[12]
+ out_rm1[13] out_rm1[14] out_rm1[15] out_rm1[16] out_rm1[17] out_rm1[18] out_rm1[19]
+ out_rm1[1] out_rm1[20] out_rm1[21] out_rm1[22] out_rm1[23] out_rm1[24] out_rm1[25]
+ out_rm1[26] out_rm1[27] out_rm1[28] out_rm1[29] out_rm1[2] out_rm1[30] out_rm1[31]
+ out_rm1[3] out_rm1[4] out_rm1[5] out_rm1[6] out_rm1[7] out_rm1[8] out_rm1[9] out_rm2[0]
+ out_rm2[10] out_rm2[11] out_rm2[12] out_rm2[13] out_rm2[14] out_rm2[15] out_rm2[16]
+ out_rm2[17] out_rm2[18] out_rm2[19] out_rm2[1] out_rm2[20] out_rm2[21] out_rm2[22]
+ out_rm2[23] out_rm2[24] out_rm2[25] out_rm2[26] out_rm2[27] out_rm2[28] out_rm2[29]
+ out_rm2[2] out_rm2[30] out_rm2[31] out_rm2[3] out_rm2[4] out_rm2[5] out_rm2[6] out_rm2[7]
+ out_rm2[8] out_rm2[9] out_rm4[0] out_rm4[10] out_rm4[11] out_rm4[12] out_rm4[13]
+ out_rm4[14] out_rm4[15] out_rm4[16] out_rm4[17] out_rm4[18] out_rm4[19] out_rm4[1]
+ out_rm4[20] out_rm4[21] out_rm4[22] out_rm4[23] out_rm4[24] out_rm4[25] out_rm4[26]
+ out_rm4[27] out_rm4[28] out_rm4[29] out_rm4[2] out_rm4[30] out_rm4[31] out_rm4[3]
+ out_rm4[4] out_rm4[5] out_rm4[6] out_rm4[7] out_rm4[8] out_rm4[9] out_rm[0] out_rm[10]
+ out_rm[11] out_rm[12] out_rm[13] out_rm[14] out_rm[15] out_rm[16] out_rm[17] out_rm[18]
+ out_rm[19] out_rm[1] out_rm[20] out_rm[21] out_rm[22] out_rm[23] out_rm[24] out_rm[25]
+ out_rm[26] out_rm[27] out_rm[28] out_rm[29] out_rm[2] out_rm[30] out_rm[31] out_rm[3]
+ out_rm[4] out_rm[5] out_rm[6] out_rm[7] out_rm[8] out_rm[9] reset sel[0] sel[1]
+ sel[2] vccd1 vssd1 we
XFILLER_54_214 vssd1 vssd1 vccd1 vccd1 sky130_fd_sc_hd__fill_1
XANTENNA__1151__B1 _1407_/Q vssd1 vssd1 vccd1 vccd1 sky130_fd_sc_hd__diode_2
XTAP_177 vssd1 vccd1 sky130_fd_sc_hd__tapvpwrvgnd_1
XTAP_188 vssd1 vccd1 sky130_fd_sc_hd__tapvpwrvgnd_1
XTAP_199 vssd1 vccd1 sky130_fd_sc_hd__tapvpwrvgnd_1
XFILLER_22_144 vssd1 vssd1 vccd1 vccd1 sky130_fd_sc_hd__decap_4
XANTENNA__1142__B1 _1410_/Q vssd1 vssd1 vccd1 vccd1 sky130_fd_sc_hd__diode_2
XANTENNA_input127_A in_rm2[8] vssd1 vssd1 vccd1 vccd1 sky130_fd_sc_hd__diode_2
XFILLER_26_63 vssd1 vssd1 vccd1 vccd1 sky130_fd_sc_hd__decap_6
XANTENNA_input92_A in_rm1[5] vssd1 vssd1 vccd1 vccd1 sky130_fd_sc_hd__diode_2
XFILLER_9_137 vssd1 vssd1 vccd1 vccd1 sky130_fd_sc_hd__decap_8
XFILLER_9_159 vssd1 vssd1 vccd1 vccd1 sky130_fd_sc_hd__decap_8
XFILLER_13_177 vssd1 vssd1 vccd1 vccd1 sky130_fd_sc_hd__fill_1
XFILLER_47_8 vssd1 vssd1 vccd1 vccd1 sky130_fd_sc_hd__decap_4
XANTENNA_output179_A _1479_/Q vssd1 vssd1 vccd1 vccd1 sky130_fd_sc_hd__diode_2
XANTENNA__0708__B1 _0687_/C vssd1 vssd1 vccd1 vccd1 sky130_fd_sc_hd__diode_2
XFILLER_3_45 vssd1 vssd1 vccd1 vccd1 sky130_fd_sc_hd__decap_4
X_1270_ _1470_/Q vssd1 vssd1 vccd1 vccd1 _1270_/Y sky130_fd_sc_hd__inv_2
XFILLER_36_236 vssd1 vssd1 vccd1 vccd1 sky130_fd_sc_hd__fill_2
XFILLER_51_228 vssd1 vssd1 vccd1 vccd1 sky130_fd_sc_hd__decap_8
XFILLER_44_291 vssd1 vssd1 vccd1 vccd1 sky130_fd_sc_hd__decap_4
X_0985_ _0994_/A vssd1 vssd1 vccd1 vccd1 _0986_/A sky130_fd_sc_hd__buf_1
XFILLER_8_170 vssd1 vssd1 vccd1 vccd1 sky130_fd_sc_hd__decap_4
X_1468_ _0909_/X _1468_/D vssd1 vssd1 vccd1 vccd1 _1468_/Q sky130_fd_sc_hd__dfxtp_2
X_1399_ _1182_/X _1399_/D vssd1 vssd1 vccd1 vccd1 _1399_/Q sky130_fd_sc_hd__dfxtp_2
XFILLER_27_236 vssd1 vssd1 vccd1 vccd1 sky130_fd_sc_hd__decap_4
XFILLER_27_225 vssd1 vssd1 vccd1 vccd1 sky130_fd_sc_hd__decap_4
XFILLER_50_294 vssd1 vssd1 vccd1 vccd1 sky130_fd_sc_hd__fill_1
XFILLER_10_136 vssd1 vssd1 vccd1 vccd1 sky130_fd_sc_hd__decap_4
XFILLER_10_147 vssd1 vssd1 vccd1 vccd1 sky130_fd_sc_hd__decap_4
XANTENNA__1363__A0 _1223_/Y vssd1 vssd1 vccd1 vccd1 sky130_fd_sc_hd__diode_2
XFILLER_37_84 vssd1 vssd1 vccd1 vccd1 sky130_fd_sc_hd__fill_1
XANTENNA__1322__B_N _1417_/Q vssd1 vssd1 vccd1 vccd1 sky130_fd_sc_hd__diode_2
XFILLER_41_272 vssd1 vssd1 vccd1 vccd1 sky130_fd_sc_hd__decap_8
XFILLER_33_228 vssd1 vssd1 vccd1 vccd1 sky130_fd_sc_hd__decap_8
XFILLER_18_269 vssd1 vssd1 vccd1 vccd1 sky130_fd_sc_hd__decap_4
X_0770_ _0770_/A vssd1 vssd1 vccd1 vccd1 _0770_/X sky130_fd_sc_hd__buf_1
XANTENNA__0929__B1 input92/X vssd1 vssd1 vccd1 vccd1 sky130_fd_sc_hd__diode_2
XFILLER_5_140 vssd1 vssd1 vccd1 vccd1 sky130_fd_sc_hd__decap_8
X_1253_ _1257_/A _1402_/Q vssd1 vssd1 vccd1 vccd1 _1253_/X sky130_fd_sc_hd__or2b_1
X_1322_ _1326_/A _1417_/Q vssd1 vssd1 vccd1 vccd1 _1322_/X sky130_fd_sc_hd__or2b_1
X_1184_ _1190_/A vssd1 vssd1 vccd1 vccd1 _1185_/A sky130_fd_sc_hd__buf_1
XFILLER_32_272 vssd1 vssd1 vccd1 vccd1 sky130_fd_sc_hd__decap_12
X_0968_ _0968_/A vssd1 vssd1 vccd1 vccd1 _0968_/X sky130_fd_sc_hd__buf_1
Xoutput231 _1404_/Q vssd1 vssd1 vccd1 vccd1 out_rm4[10] sky130_fd_sc_hd__buf_2
Xoutput242 _1414_/Q vssd1 vssd1 vccd1 vccd1 out_rm4[20] sky130_fd_sc_hd__buf_2
Xoutput264 _1373_/X vssd1 vssd1 vccd1 vccd1 out_rm[11] sky130_fd_sc_hd__buf_2
X_0899_ _0918_/A vssd1 vssd1 vccd1 vccd1 _0899_/X sky130_fd_sc_hd__dlymetal6s2s_1
Xoutput286 _1393_/X vssd1 vssd1 vccd1 vccd1 out_rm[31] sky130_fd_sc_hd__buf_2
Xoutput220 _1492_/Q vssd1 vssd1 vccd1 vccd1 out_rm2[2] sky130_fd_sc_hd__buf_2
Xoutput253 _1424_/Q vssd1 vssd1 vccd1 vccd1 out_rm4[30] sky130_fd_sc_hd__buf_2
XANTENNA__1345__B_N _1422_/Q vssd1 vssd1 vccd1 vccd1 sky130_fd_sc_hd__diode_2
Xoutput275 _1383_/X vssd1 vssd1 vccd1 vccd1 out_rm[21] sky130_fd_sc_hd__buf_2
XFILLER_55_320 vssd1 vssd1 vccd1 vccd1 sky130_fd_sc_hd__decap_8
XFILLER_23_283 vssd1 vssd1 vccd1 vccd1 sky130_fd_sc_hd__decap_8
XANTENNA__1259__A _1468_/Q vssd1 vssd1 vccd1 vccd1 sky130_fd_sc_hd__diode_2
XFILLER_23_42 vssd1 vssd1 vccd1 vccd1 sky130_fd_sc_hd__decap_4
XANTENNA_input55_A in_rm0[2] vssd1 vssd1 vccd1 vccd1 sky130_fd_sc_hd__diode_2
XFILLER_2_165 vssd1 vssd1 vccd1 vccd1 sky130_fd_sc_hd__decap_4
XFILLER_48_83 vssd1 vssd1 vccd1 vccd1 sky130_fd_sc_hd__fill_1
XFILLER_0_13 vssd1 vssd1 vccd1 vccd1 sky130_fd_sc_hd__decap_4
XFILLER_0_57 vssd1 vssd1 vccd1 vccd1 sky130_fd_sc_hd__decap_4
XANTENNA_output211_A _1511_/Q vssd1 vssd1 vccd1 vccd1 sky130_fd_sc_hd__diode_2
X_0822_ _0834_/A vssd1 vssd1 vccd1 vccd1 _0823_/A sky130_fd_sc_hd__buf_1
XFILLER_9_55 vssd1 vssd1 vccd1 vccd1 sky130_fd_sc_hd__fill_1
XFILLER_9_88 vssd1 vssd1 vccd1 vccd1 sky130_fd_sc_hd__decap_4
XANTENNA__1218__B_N _1394_/Q vssd1 vssd1 vccd1 vccd1 sky130_fd_sc_hd__diode_2
X_0753_ _0753_/A vssd1 vssd1 vccd1 vccd1 _0753_/X sky130_fd_sc_hd__buf_1
X_0684_ _0684_/A _0684_/B _0684_/C _0684_/D vssd1 vssd1 vccd1 vccd1 _0685_/D sky130_fd_sc_hd__or4_1
X_1305_ _1478_/Q vssd1 vssd1 vccd1 vccd1 _1305_/Y sky130_fd_sc_hd__inv_2
X_1236_ _1463_/Q vssd1 vssd1 vccd1 vccd1 _1236_/Y sky130_fd_sc_hd__inv_2
XFILLER_52_301 vssd1 vssd1 vccd1 vccd1 sky130_fd_sc_hd__decap_6
X_1167_ input32/X _1159_/X _1403_/Q _1160_/X _1154_/X vssd1 vssd1 vccd1 vccd1 _1403_/D
+ sky130_fd_sc_hd__o221a_1
X_1098_ input20/X _1081_/X _1421_/Q _1084_/X _1097_/X vssd1 vssd1 vccd1 vccd1 _1421_/D
+ sky130_fd_sc_hd__o221a_1
XFILLER_55_161 vssd1 vssd1 vccd1 vccd1 sky130_fd_sc_hd__decap_6
XFILLER_47_139 vssd1 vssd1 vccd1 vccd1 sky130_fd_sc_hd__decap_4
XFILLER_18_53 vssd1 vssd1 vccd1 vccd1 sky130_fd_sc_hd__decap_4
XFILLER_34_85 vssd1 vssd1 vccd1 vccd1 sky130_fd_sc_hd__decap_12
XFILLER_11_220 vssd1 vssd1 vccd1 vccd1 sky130_fd_sc_hd__decap_4
XFILLER_11_231 vssd1 vssd1 vccd1 vccd1 sky130_fd_sc_hd__decap_4
XFILLER_11_264 vssd1 vssd1 vccd1 vccd1 sky130_fd_sc_hd__fill_1
XFILLER_50_40 vssd1 vssd1 vccd1 vccd1 sky130_fd_sc_hd__decap_4
XANTENNA_output161_A _1431_/Q vssd1 vssd1 vccd1 vccd1 sky130_fd_sc_hd__diode_2
XFILLER_7_235 vssd1 vssd1 vccd1 vccd1 sky130_fd_sc_hd__decap_4
XFILLER_7_279 vssd1 vssd1 vccd1 vccd1 sky130_fd_sc_hd__fill_1
XANTENNA_output259_A _1401_/Q vssd1 vssd1 vccd1 vccd1 sky130_fd_sc_hd__diode_2
XFILLER_38_139 vssd1 vssd1 vccd1 vccd1 sky130_fd_sc_hd__fill_1
XFILLER_46_150 vssd1 vssd1 vccd1 vccd1 sky130_fd_sc_hd__decap_4
X_1021_ _1021_/A vssd1 vssd1 vccd1 vccd1 _1021_/X sky130_fd_sc_hd__buf_1
XFILLER_34_323 vssd1 vssd1 vccd1 vccd1 sky130_fd_sc_hd__fill_1
X_0805_ _1495_/Q _0798_/X _0685_/A _0799_/X _0800_/X vssd1 vssd1 vccd1 vccd1 _1495_/D
+ sky130_fd_sc_hd__o221a_1
X_0736_ _0736_/A vssd1 vssd1 vccd1 vccd1 _0736_/X sky130_fd_sc_hd__buf_1
XANTENNA__0771__A1 _1503_/Q vssd1 vssd1 vccd1 vccd1 sky130_fd_sc_hd__diode_2
XFILLER_29_128 vssd1 vssd1 vccd1 vccd1 sky130_fd_sc_hd__decap_4
X_1219_ _1211_/Y _1212_/X _1213_/Y _1214_/X _1218_/X vssd1 vssd1 vccd1 vccd1 _1219_/Y
+ sky130_fd_sc_hd__o221ai_1
XFILLER_52_197 vssd1 vssd1 vccd1 vccd1 sky130_fd_sc_hd__decap_3
XFILLER_52_186 vssd1 vssd1 vccd1 vccd1 sky130_fd_sc_hd__decap_4
XFILLER_40_304 vssd1 vssd1 vccd1 vccd1 sky130_fd_sc_hd__decap_4
XFILLER_20_32 vssd1 vssd1 vccd1 vccd1 sky130_fd_sc_hd__decap_4
XFILLER_20_10 vssd1 vssd1 vccd1 vccd1 sky130_fd_sc_hd__decap_4
XFILLER_29_85 vssd1 vssd1 vccd1 vccd1 sky130_fd_sc_hd__decap_3
XFILLER_29_52 vssd1 vssd1 vccd1 vccd1 sky130_fd_sc_hd__decap_4
XFILLER_20_98 vssd1 vssd1 vccd1 vccd1 sky130_fd_sc_hd__decap_4
XFILLER_43_164 vssd1 vssd1 vccd1 vccd1 sky130_fd_sc_hd__decap_4
XFILLER_43_142 vssd1 vssd1 vccd1 vccd1 sky130_fd_sc_hd__fill_1
XANTENNA_input18_A in_other_rm[25] vssd1 vssd1 vccd1 vccd1 sky130_fd_sc_hd__diode_2
XFILLER_16_301 vssd1 vssd1 vccd1 vccd1 sky130_fd_sc_hd__decap_6
XFILLER_16_345 vssd1 vssd1 vccd1 vccd1 sky130_fd_sc_hd__decap_4
XTAP_348 vssd1 vccd1 sky130_fd_sc_hd__tapvpwrvgnd_1
XTAP_337 vssd1 vccd1 sky130_fd_sc_hd__tapvpwrvgnd_1
XTAP_326 vssd1 vccd1 sky130_fd_sc_hd__tapvpwrvgnd_1
XTAP_315 vssd1 vccd1 sky130_fd_sc_hd__tapvpwrvgnd_1
XTAP_304 vssd1 vccd1 sky130_fd_sc_hd__tapvpwrvgnd_1
XFILLER_3_271 vssd1 vssd1 vccd1 vccd1 sky130_fd_sc_hd__decap_8
XFILLER_6_78 vssd1 vssd1 vccd1 vccd1 sky130_fd_sc_hd__decap_6
XTAP_359 vssd1 vccd1 sky130_fd_sc_hd__tapvpwrvgnd_1
X_1004_ _1013_/A vssd1 vssd1 vccd1 vccd1 _1005_/A sky130_fd_sc_hd__buf_1
XFILLER_34_197 vssd1 vssd1 vccd1 vccd1 sky130_fd_sc_hd__decap_4
XFILLER_34_175 vssd1 vssd1 vccd1 vccd1 sky130_fd_sc_hd__decap_8
XFILLER_22_304 vssd1 vssd1 vccd1 vccd1 sky130_fd_sc_hd__decap_4
XFILLER_19_194 vssd1 vssd1 vccd1 vccd1 sky130_fd_sc_hd__decap_4
XFILLER_57_201 vssd1 vssd1 vccd1 vccd1 sky130_fd_sc_hd__fill_1
X_0719_ _0719_/A vssd1 vssd1 vccd1 vccd1 _0719_/X sky130_fd_sc_hd__dlymetal6s2s_1
XFILLER_25_164 vssd1 vssd1 vccd1 vccd1 sky130_fd_sc_hd__decap_4
XFILLER_25_142 vssd1 vssd1 vccd1 vccd1 sky130_fd_sc_hd__decap_6
XFILLER_40_123 vssd1 vssd1 vccd1 vccd1 sky130_fd_sc_hd__decap_4
XFILLER_25_186 vssd1 vssd1 vccd1 vccd1 sky130_fd_sc_hd__decap_4
XFILLER_13_337 vssd1 vssd1 vccd1 vccd1 sky130_fd_sc_hd__fill_1
XANTENNA__1267__A _1501_/Q vssd1 vssd1 vccd1 vccd1 sky130_fd_sc_hd__diode_2
XFILLER_56_83 vssd1 vssd1 vccd1 vccd1 sky130_fd_sc_hd__fill_1
XFILLER_48_267 vssd1 vssd1 vccd1 vccd1 sky130_fd_sc_hd__decap_4
Xinput120 in_rm2[30] vssd1 vssd1 vccd1 vccd1 _0687_/B sky130_fd_sc_hd__clkbuf_2
Xinput131 sel[1] vssd1 vssd1 vccd1 vccd1 _1215_/A sky130_fd_sc_hd__dlymetal6s2s_1
XFILLER_31_167 vssd1 vssd1 vccd1 vccd1 sky130_fd_sc_hd__fill_1
XFILLER_16_120 vssd1 vssd1 vccd1 vccd1 sky130_fd_sc_hd__decap_12
XFILLER_16_186 vssd1 vssd1 vccd1 vccd1 sky130_fd_sc_hd__decap_8
XFILLER_16_197 vssd1 vssd1 vccd1 vccd1 sky130_fd_sc_hd__decap_4
XFILLER_8_352 vssd1 vssd1 vccd1 vccd1 sky130_fd_sc_hd__decap_4
XFILLER_39_234 vssd1 vssd1 vccd1 vccd1 sky130_fd_sc_hd__decap_8
XTAP_145 vssd1 vccd1 sky130_fd_sc_hd__tapvpwrvgnd_1
XTAP_134 vssd1 vccd1 sky130_fd_sc_hd__tapvpwrvgnd_1
XTAP_123 vssd1 vccd1 sky130_fd_sc_hd__tapvpwrvgnd_1
XTAP_156 vssd1 vccd1 sky130_fd_sc_hd__tapvpwrvgnd_1
XTAP_167 vssd1 vccd1 sky130_fd_sc_hd__tapvpwrvgnd_1
XTAP_178 vssd1 vccd1 sky130_fd_sc_hd__tapvpwrvgnd_1
XTAP_189 vssd1 vccd1 sky130_fd_sc_hd__tapvpwrvgnd_1
X_1484_ _0846_/X _1484_/D vssd1 vssd1 vccd1 vccd1 _1484_/Q sky130_fd_sc_hd__dfxtp_2
XFILLER_54_248 vssd1 vssd1 vccd1 vccd1 sky130_fd_sc_hd__decap_4
XFILLER_54_237 vssd1 vssd1 vccd1 vccd1 sky130_fd_sc_hd__fill_1
XFILLER_39_245 vssd1 vssd1 vccd1 vccd1 sky130_fd_sc_hd__decap_4
XFILLER_22_112 vssd1 vssd1 vccd1 vccd1 sky130_fd_sc_hd__decap_4
XANTENNA__1142__A1 input8/X vssd1 vssd1 vccd1 vccd1 sky130_fd_sc_hd__diode_2
XANTENNA__1390__A1 _1454_/Q vssd1 vssd1 vccd1 vccd1 sky130_fd_sc_hd__diode_2
XFILLER_13_167 vssd1 vssd1 vccd1 vccd1 sky130_fd_sc_hd__fill_1
XANTENNA_input85_A in_rm1[28] vssd1 vssd1 vccd1 vccd1 sky130_fd_sc_hd__diode_2
XFILLER_42_85 vssd1 vssd1 vccd1 vccd1 sky130_fd_sc_hd__decap_12
XANTENNA__1381__A1 _1445_/Q vssd1 vssd1 vccd1 vccd1 sky130_fd_sc_hd__diode_2
XANTENNA__0708__A1 _1519_/Q vssd1 vssd1 vccd1 vccd1 sky130_fd_sc_hd__diode_2
XFILLER_3_57 vssd1 vssd1 vccd1 vccd1 sky130_fd_sc_hd__decap_3
XFILLER_3_35 vssd1 vssd1 vccd1 vccd1 sky130_fd_sc_hd__decap_8
XFILLER_3_13 vssd1 vssd1 vccd1 vccd1 sky130_fd_sc_hd__decap_4
XFILLER_51_207 vssd1 vssd1 vccd1 vccd1 sky130_fd_sc_hd__decap_4
XFILLER_36_248 vssd1 vssd1 vccd1 vccd1 sky130_fd_sc_hd__decap_4
XFILLER_36_204 vssd1 vssd1 vccd1 vccd1 sky130_fd_sc_hd__fill_1
X_0984_ _1450_/Q _0976_/X input49/X _0978_/X _0979_/X vssd1 vssd1 vccd1 vccd1 _1450_/D
+ sky130_fd_sc_hd__o221a_1
XFILLER_8_182 vssd1 vssd1 vccd1 vccd1 sky130_fd_sc_hd__decap_4
X_1467_ _0912_/X _1467_/D vssd1 vssd1 vccd1 vccd1 _1467_/Q sky130_fd_sc_hd__dfxtp_2
XFILLER_27_215 vssd1 vssd1 vccd1 vccd1 sky130_fd_sc_hd__decap_8
X_1398_ _1185_/X _1398_/D vssd1 vssd1 vccd1 vccd1 _1398_/Q sky130_fd_sc_hd__dfxtp_1
XANTENNA__1372__A1 _1436_/Q vssd1 vssd1 vccd1 vccd1 sky130_fd_sc_hd__diode_2
XFILLER_35_281 vssd1 vssd1 vccd1 vccd1 sky130_fd_sc_hd__decap_8
XFILLER_35_270 vssd1 vssd1 vccd1 vccd1 sky130_fd_sc_hd__decap_4
XFILLER_50_284 vssd1 vssd1 vccd1 vccd1 sky130_fd_sc_hd__decap_4
XFILLER_6_119 vssd1 vssd1 vccd1 vccd1 sky130_fd_sc_hd__decap_8
XFILLER_2_336 vssd1 vssd1 vccd1 vccd1 sky130_fd_sc_hd__decap_4
XFILLER_2_325 vssd1 vssd1 vccd1 vccd1 sky130_fd_sc_hd__decap_6
XFILLER_37_96 vssd1 vssd1 vccd1 vccd1 sky130_fd_sc_hd__decap_12
XFILLER_37_41 vssd1 vssd1 vccd1 vccd1 sky130_fd_sc_hd__decap_12
XFILLER_18_248 vssd1 vssd1 vccd1 vccd1 sky130_fd_sc_hd__decap_4
XFILLER_53_73 vssd1 vssd1 vccd1 vccd1 sky130_fd_sc_hd__decap_8
XFILLER_52_7 vssd1 vssd1 vccd1 vccd1 sky130_fd_sc_hd__decap_8
XANTENNA_output191_A _1461_/Q vssd1 vssd1 vccd1 vccd1 sky130_fd_sc_hd__diode_2
XANTENNA__0929__A1 _1463_/Q vssd1 vssd1 vccd1 vccd1 sky130_fd_sc_hd__diode_2
X_1252_ _1498_/Q vssd1 vssd1 vccd1 vccd1 _1252_/Y sky130_fd_sc_hd__inv_2
X_1321_ _1513_/Q vssd1 vssd1 vccd1 vccd1 _1321_/Y sky130_fd_sc_hd__inv_2
X_1183_ input28/X _1178_/X _1399_/Q _1179_/X _1173_/X vssd1 vssd1 vccd1 vccd1 _1399_/D
+ sky130_fd_sc_hd__o221a_1
XFILLER_17_270 vssd1 vssd1 vccd1 vccd1 sky130_fd_sc_hd__decap_4
XFILLER_32_284 vssd1 vssd1 vccd1 vccd1 sky130_fd_sc_hd__decap_12
X_0967_ _0973_/A vssd1 vssd1 vccd1 vccd1 _0968_/A sky130_fd_sc_hd__buf_1
Xoutput232 _1405_/Q vssd1 vssd1 vccd1 vccd1 out_rm4[11] sky130_fd_sc_hd__buf_2
Xoutput265 _1374_/X vssd1 vssd1 vccd1 vccd1 out_rm[12] sky130_fd_sc_hd__buf_2
Xoutput243 _1415_/Q vssd1 vssd1 vccd1 vccd1 out_rm4[21] sky130_fd_sc_hd__buf_2
X_0898_ _0956_/A vssd1 vssd1 vccd1 vccd1 _0898_/X sky130_fd_sc_hd__dlymetal6s2s_1
Xoutput276 _1384_/X vssd1 vssd1 vccd1 vccd1 out_rm[22] sky130_fd_sc_hd__buf_2
Xoutput254 _1425_/Q vssd1 vssd1 vccd1 vccd1 out_rm4[31] sky130_fd_sc_hd__buf_2
Xoutput221 _1520_/Q vssd1 vssd1 vccd1 vccd1 out_rm2[30] sky130_fd_sc_hd__buf_2
Xoutput210 _1510_/Q vssd1 vssd1 vccd1 vccd1 out_rm2[20] sky130_fd_sc_hd__buf_2
Xoutput287 _1365_/X vssd1 vssd1 vccd1 vccd1 out_rm[3] sky130_fd_sc_hd__buf_2
X_1519_ _0707_/X _1519_/D vssd1 vssd1 vccd1 vccd1 _1519_/Q sky130_fd_sc_hd__dfxtp_4
XFILLER_55_343 vssd1 vssd1 vccd1 vccd1 sky130_fd_sc_hd__decap_4
XFILLER_55_332 vssd1 vssd1 vccd1 vccd1 sky130_fd_sc_hd__decap_4
XFILLER_15_207 vssd1 vssd1 vccd1 vccd1 sky130_fd_sc_hd__fill_1
XFILLER_23_262 vssd1 vssd1 vccd1 vccd1 sky130_fd_sc_hd__fill_1
XFILLER_15_229 vssd1 vssd1 vccd1 vccd1 sky130_fd_sc_hd__fill_1
XANTENNA__1275__A _1503_/Q vssd1 vssd1 vccd1 vccd1 sky130_fd_sc_hd__diode_2
XFILLER_23_98 vssd1 vssd1 vccd1 vccd1 sky130_fd_sc_hd__decap_12
XFILLER_23_87 vssd1 vssd1 vccd1 vccd1 sky130_fd_sc_hd__decap_6
XANTENNA_input48_A in_rm0[23] vssd1 vssd1 vccd1 vccd1 sky130_fd_sc_hd__diode_2
XANTENNA_output204_A _1505_/Q vssd1 vssd1 vccd1 vccd1 sky130_fd_sc_hd__diode_2
X_0752_ _0755_/A vssd1 vssd1 vccd1 vccd1 _0753_/A sky130_fd_sc_hd__buf_1
X_0821_ _0841_/A vssd1 vssd1 vccd1 vccd1 _0834_/A sky130_fd_sc_hd__buf_1
XFILLER_9_67 vssd1 vssd1 vccd1 vccd1 sky130_fd_sc_hd__decap_6
XFILLER_14_251 vssd1 vssd1 vccd1 vccd1 sky130_fd_sc_hd__fill_1
X_0683_ _0683_/A _0683_/B vssd1 vssd1 vccd1 vccd1 _0685_/B sky130_fd_sc_hd__or2_1
X_1304_ _1301_/Y _1283_/X _1302_/Y _1285_/X _1303_/X vssd1 vssd1 vccd1 vccd1 _1304_/Y
+ sky130_fd_sc_hd__o221ai_1
XFILLER_37_332 vssd1 vssd1 vccd1 vccd1 sky130_fd_sc_hd__decap_4
X_1166_ _1166_/A vssd1 vssd1 vccd1 vccd1 _1166_/X sky130_fd_sc_hd__buf_1
X_1235_ _1232_/Y _1212_/X _1233_/Y _1214_/X _1234_/X vssd1 vssd1 vccd1 vccd1 _1235_/Y
+ sky130_fd_sc_hd__o221ai_4
X_1097_ _1116_/A vssd1 vssd1 vccd1 vccd1 _1097_/X sky130_fd_sc_hd__buf_2
XFILLER_20_298 vssd1 vssd1 vccd1 vccd1 sky130_fd_sc_hd__decap_4
XFILLER_20_243 vssd1 vssd1 vccd1 vccd1 sky130_fd_sc_hd__decap_3
XFILLER_47_107 vssd1 vssd1 vccd1 vccd1 sky130_fd_sc_hd__decap_4
XFILLER_43_346 vssd1 vssd1 vccd1 vccd1 sky130_fd_sc_hd__decap_4
XFILLER_43_313 vssd1 vssd1 vccd1 vccd1 sky130_fd_sc_hd__decap_4
XFILLER_28_321 vssd1 vssd1 vccd1 vccd1 sky130_fd_sc_hd__decap_4
XFILLER_18_98 vssd1 vssd1 vccd1 vccd1 sky130_fd_sc_hd__fill_1
XFILLER_18_76 vssd1 vssd1 vccd1 vccd1 sky130_fd_sc_hd__decap_8
XANTENNA_input102_A in_rm2[14] vssd1 vssd1 vccd1 vccd1 sky130_fd_sc_hd__diode_2
XFILLER_50_74 vssd1 vssd1 vccd1 vccd1 sky130_fd_sc_hd__decap_4
XFILLER_7_269 vssd1 vssd1 vccd1 vccd1 sky130_fd_sc_hd__fill_1
X_1020_ _1032_/A vssd1 vssd1 vccd1 vccd1 _1021_/A sky130_fd_sc_hd__buf_1
XFILLER_38_107 vssd1 vssd1 vccd1 vccd1 sky130_fd_sc_hd__decap_4
XANTENNA_output154_A _1454_/Q vssd1 vssd1 vccd1 vccd1 sky130_fd_sc_hd__diode_2
XFILLER_19_332 vssd1 vssd1 vccd1 vccd1 sky130_fd_sc_hd__decap_4
X_0735_ _0735_/A vssd1 vssd1 vccd1 vccd1 _0736_/A sky130_fd_sc_hd__buf_1
X_0804_ _0804_/A vssd1 vssd1 vccd1 vccd1 _0804_/X sky130_fd_sc_hd__buf_1
XFILLER_37_140 vssd1 vssd1 vccd1 vccd1 sky130_fd_sc_hd__decap_8
X_1149_ _1152_/A vssd1 vssd1 vccd1 vccd1 _1150_/A sky130_fd_sc_hd__buf_1
XFILLER_25_335 vssd1 vssd1 vccd1 vccd1 sky130_fd_sc_hd__fill_1
X_1218_ _1234_/A _1394_/Q vssd1 vssd1 vccd1 vccd1 _1218_/X sky130_fd_sc_hd__or2b_1
XANTENNA__0722__A _1359_/A vssd1 vssd1 vccd1 vccd1 sky130_fd_sc_hd__diode_2
XFILLER_20_88 vssd1 vssd1 vccd1 vccd1 sky130_fd_sc_hd__decap_6
XFILLER_20_66 vssd1 vssd1 vccd1 vccd1 sky130_fd_sc_hd__decap_4
XFILLER_20_22 vssd1 vssd1 vccd1 vccd1 sky130_fd_sc_hd__decap_6
XFILLER_4_206 vssd1 vssd1 vccd1 vccd1 sky130_fd_sc_hd__decap_4
XFILLER_29_42 vssd1 vssd1 vccd1 vccd1 sky130_fd_sc_hd__decap_6
XFILLER_29_31 vssd1 vssd1 vccd1 vccd1 sky130_fd_sc_hd__fill_1
XFILLER_45_30 vssd1 vssd1 vccd1 vccd1 sky130_fd_sc_hd__decap_4
XFILLER_31_349 vssd1 vssd1 vccd1 vccd1 sky130_fd_sc_hd__decap_6
XTAP_349 vssd1 vccd1 sky130_fd_sc_hd__tapvpwrvgnd_1
XTAP_338 vssd1 vccd1 sky130_fd_sc_hd__tapvpwrvgnd_1
XTAP_327 vssd1 vccd1 sky130_fd_sc_hd__tapvpwrvgnd_1
XTAP_316 vssd1 vccd1 sky130_fd_sc_hd__tapvpwrvgnd_1
XTAP_305 vssd1 vccd1 sky130_fd_sc_hd__tapvpwrvgnd_1
XFILLER_3_283 vssd1 vssd1 vccd1 vccd1 sky130_fd_sc_hd__decap_4
X_1003_ _1445_/Q _0996_/X input43/X _0997_/X _0998_/X vssd1 vssd1 vccd1 vccd1 _1445_/D
+ sky130_fd_sc_hd__o221a_1
XFILLER_30_360 vssd1 vssd1 vccd1 vccd1 sky130_fd_sc_hd__decap_4
X_0718_ _0758_/A vssd1 vssd1 vccd1 vccd1 _0718_/X sky130_fd_sc_hd__dlymetal6s2s_1
XFILLER_57_279 vssd1 vssd1 vccd1 vccd1 sky130_fd_sc_hd__fill_1
XFILLER_40_135 vssd1 vssd1 vccd1 vccd1 sky130_fd_sc_hd__decap_4
XFILLER_25_198 vssd1 vssd1 vccd1 vccd1 sky130_fd_sc_hd__fill_1
XFILLER_13_305 vssd1 vssd1 vccd1 vccd1 sky130_fd_sc_hd__decap_4
XFILLER_13_327 vssd1 vssd1 vccd1 vccd1 sky130_fd_sc_hd__fill_1
XFILLER_15_33 vssd1 vssd1 vccd1 vccd1 sky130_fd_sc_hd__decap_12
XFILLER_40_179 vssd1 vssd1 vccd1 vccd1 sky130_fd_sc_hd__decap_4
XFILLER_40_146 vssd1 vssd1 vccd1 vccd1 sky130_fd_sc_hd__decap_12
XFILLER_31_43 vssd1 vssd1 vccd1 vccd1 sky130_fd_sc_hd__fill_1
XFILLER_31_21 vssd1 vssd1 vccd1 vccd1 sky130_fd_sc_hd__decap_4
XFILLER_21_360 vssd1 vssd1 vccd1 vccd1 sky130_fd_sc_hd__decap_4
XFILLER_15_77 vssd1 vssd1 vccd1 vccd1 sky130_fd_sc_hd__decap_12
XANTENNA__1283__A _1329_/A vssd1 vssd1 vccd1 vccd1 sky130_fd_sc_hd__diode_2
Xinput110 in_rm2[21] vssd1 vssd1 vccd1 vccd1 _0689_/C sky130_fd_sc_hd__clkbuf_2
XFILLER_0_253 vssd1 vssd1 vccd1 vccd1 sky130_fd_sc_hd__decap_4
XFILLER_0_220 vssd1 vssd1 vccd1 vccd1 sky130_fd_sc_hd__decap_4
XFILLER_56_95 vssd1 vssd1 vccd1 vccd1 sky130_fd_sc_hd__decap_4
XFILLER_56_51 vssd1 vssd1 vccd1 vccd1 sky130_fd_sc_hd__decap_4
Xinput132 sel[2] vssd1 vssd1 vccd1 vccd1 _1361_/S sky130_fd_sc_hd__buf_2
XFILLER_48_279 vssd1 vssd1 vccd1 vccd1 sky130_fd_sc_hd__fill_1
XFILLER_48_224 vssd1 vssd1 vccd1 vccd1 sky130_fd_sc_hd__decap_4
XANTENNA_input30_A in_other_rm[7] vssd1 vssd1 vccd1 vccd1 sky130_fd_sc_hd__diode_2
Xinput121 in_rm2[31] vssd1 vssd1 vccd1 vccd1 _0687_/A sky130_fd_sc_hd__clkbuf_2
XFILLER_16_132 vssd1 vssd1 vccd1 vccd1 sky130_fd_sc_hd__fill_2
XFILLER_31_179 vssd1 vssd1 vccd1 vccd1 sky130_fd_sc_hd__decap_6
XFILLER_31_146 vssd1 vssd1 vccd1 vccd1 sky130_fd_sc_hd__decap_6
XFILLER_12_360 vssd1 vssd1 vccd1 vccd1 sky130_fd_sc_hd__decap_4
XFILLER_39_268 vssd1 vssd1 vccd1 vccd1 sky130_fd_sc_hd__decap_12
XTAP_146 vssd1 vccd1 sky130_fd_sc_hd__tapvpwrvgnd_1
XTAP_135 vssd1 vccd1 sky130_fd_sc_hd__tapvpwrvgnd_1
XTAP_124 vssd1 vccd1 sky130_fd_sc_hd__tapvpwrvgnd_1
XTAP_157 vssd1 vccd1 sky130_fd_sc_hd__tapvpwrvgnd_1
XTAP_168 vssd1 vccd1 sky130_fd_sc_hd__tapvpwrvgnd_1
XTAP_179 vssd1 vccd1 sky130_fd_sc_hd__tapvpwrvgnd_1
X_1483_ _0849_/X _1483_/D vssd1 vssd1 vccd1 vccd1 _1483_/Q sky130_fd_sc_hd__dfxtp_1
XANTENNA__1193__A _1359_/A vssd1 vssd1 vccd1 vccd1 sky130_fd_sc_hd__diode_2
XFILLER_42_42 vssd1 vssd1 vccd1 vccd1 sky130_fd_sc_hd__decap_4
XFILLER_26_87 vssd1 vssd1 vccd1 vccd1 sky130_fd_sc_hd__decap_4
XFILLER_13_102 vssd1 vssd1 vccd1 vccd1 sky130_fd_sc_hd__decap_4
XANTENNA_input78_A in_rm1[21] vssd1 vssd1 vccd1 vccd1 sky130_fd_sc_hd__diode_2
XFILLER_42_97 vssd1 vssd1 vccd1 vccd1 sky130_fd_sc_hd__decap_8
XFILLER_5_301 vssd1 vssd1 vccd1 vccd1 sky130_fd_sc_hd__decap_4
XFILLER_5_323 vssd1 vssd1 vccd1 vccd1 sky130_fd_sc_hd__decap_4
XFILLER_3_69 vssd1 vssd1 vccd1 vccd1 sky130_fd_sc_hd__decap_4
XANTENNA_output234_A _1407_/Q vssd1 vssd1 vccd1 vccd1 sky130_fd_sc_hd__diode_2
X_0983_ _0983_/A vssd1 vssd1 vccd1 vccd1 _0983_/X sky130_fd_sc_hd__buf_1
X_1466_ _0915_/X _1466_/D vssd1 vssd1 vccd1 vccd1 _1466_/Q sky130_fd_sc_hd__dfxtp_2
XFILLER_27_249 vssd1 vssd1 vccd1 vccd1 sky130_fd_sc_hd__decap_4
X_1397_ _1188_/X _1397_/D vssd1 vssd1 vccd1 vccd1 _1397_/Q sky130_fd_sc_hd__dfxtp_1
XFILLER_2_304 vssd1 vssd1 vccd1 vccd1 sky130_fd_sc_hd__decap_4
XFILLER_12_67 vssd1 vssd1 vccd1 vccd1 sky130_fd_sc_hd__decap_4
XANTENNA_input132_A sel[2] vssd1 vssd1 vccd1 vccd1 sky130_fd_sc_hd__diode_2
XFILLER_37_53 vssd1 vssd1 vccd1 vccd1 sky130_fd_sc_hd__decap_3
XFILLER_53_52 vssd1 vssd1 vccd1 vccd1 sky130_fd_sc_hd__decap_4
XFILLER_26_293 vssd1 vssd1 vccd1 vccd1 sky130_fd_sc_hd__decap_4