* NGSPICE file created from sram_wrapper.ext - technology: sky130A

* Black-box entry subcircuit for sky130_fd_sc_hd__tapvpwrvgnd_1 abstract view
.subckt sky130_fd_sc_hd__tapvpwrvgnd_1 VGND VPWR
.ends

* Black-box entry subcircuit for sky130_fd_sc_hd__fill_1 abstract view
.subckt sky130_fd_sc_hd__fill_1 VGND VNB VPB VPWR
.ends

* Black-box entry subcircuit for sky130_fd_sc_hd__diode_2 abstract view
.subckt sky130_fd_sc_hd__diode_2 DIODE VGND VNB VPB VPWR
.ends

* Black-box entry subcircuit for sky130_fd_sc_hd__decap_8 abstract view
.subckt sky130_fd_sc_hd__decap_8 VGND VNB VPB VPWR
.ends

* Black-box entry subcircuit for sky130_fd_sc_hd__decap_4 abstract view
.subckt sky130_fd_sc_hd__decap_4 VGND VNB VPB VPWR
.ends

* Black-box entry subcircuit for sky130_fd_sc_hd__fill_2 abstract view
.subckt sky130_fd_sc_hd__fill_2 VGND VNB VPB VPWR
.ends

* Black-box entry subcircuit for sky130_fd_sc_hd__a22o_1 abstract view
.subckt sky130_fd_sc_hd__a22o_1 A1 A2 B1 B2 VGND VNB VPB VPWR X
.ends

* Black-box entry subcircuit for sky130_fd_sc_hd__inv_2 abstract view
.subckt sky130_fd_sc_hd__inv_2 A VGND VNB VPB VPWR Y
.ends

* Black-box entry subcircuit for sky130_fd_sc_hd__buf_2 abstract view
.subckt sky130_fd_sc_hd__buf_2 A VGND VNB VPB VPWR X
.ends

* Black-box entry subcircuit for sky130_fd_sc_hd__dfxtp_1 abstract view
.subckt sky130_fd_sc_hd__dfxtp_1 CLK D VGND VNB VPB VPWR Q
.ends

* Black-box entry subcircuit for sky130_fd_sc_hd__mux2_1 abstract view
.subckt sky130_fd_sc_hd__mux2_1 A0 A1 S VGND VNB VPB VPWR X
.ends

* Black-box entry subcircuit for sky130_fd_sc_hd__decap_6 abstract view
.subckt sky130_fd_sc_hd__decap_6 VGND VNB VPB VPWR
.ends

* Black-box entry subcircuit for sky130_fd_sc_hd__decap_12 abstract view
.subckt sky130_fd_sc_hd__decap_12 VGND VNB VPB VPWR
.ends

* Black-box entry subcircuit for sky130_fd_sc_hd__a211o_1 abstract view
.subckt sky130_fd_sc_hd__a211o_1 A1 A2 B1 C1 VGND VNB VPB VPWR X
.ends

* Black-box entry subcircuit for sky130_fd_sc_hd__clkbuf_2 abstract view
.subckt sky130_fd_sc_hd__clkbuf_2 A VGND VNB VPB VPWR X
.ends

* Black-box entry subcircuit for sky130_fd_sc_hd__dlymetal6s2s_1 abstract view
.subckt sky130_fd_sc_hd__dlymetal6s2s_1 A VGND VNB VPB VPWR X
.ends

* Black-box entry subcircuit for sky130_fd_sc_hd__or2_1 abstract view
.subckt sky130_fd_sc_hd__or2_1 A B VGND VNB VPB VPWR X
.ends

* Black-box entry subcircuit for sky130_fd_sc_hd__a21oi_1 abstract view
.subckt sky130_fd_sc_hd__a21oi_1 A1 A2 B1 VGND VNB VPB VPWR Y
.ends

* Black-box entry subcircuit for sky130_fd_sc_hd__o21a_1 abstract view
.subckt sky130_fd_sc_hd__o21a_1 A1 A2 B1 VGND VNB VPB VPWR X
.ends

* Black-box entry subcircuit for sky130_fd_sc_hd__decap_3 abstract view
.subckt sky130_fd_sc_hd__decap_3 VGND VNB VPB VPWR
.ends

* Black-box entry subcircuit for sky130_fd_sc_hd__clkbuf_1 abstract view
.subckt sky130_fd_sc_hd__clkbuf_1 A VGND VNB VPB VPWR X
.ends

* Black-box entry subcircuit for sky130_fd_sc_hd__and2_1 abstract view
.subckt sky130_fd_sc_hd__and2_1 A B VGND VNB VPB VPWR X
.ends

* Black-box entry subcircuit for sky130_fd_sc_hd__mux2_4 abstract view
.subckt sky130_fd_sc_hd__mux2_4 A0 A1 S VGND VNB VPB VPWR X
.ends

* Black-box entry subcircuit for sky130_fd_sc_hd__dfxtp_2 abstract view
.subckt sky130_fd_sc_hd__dfxtp_2 CLK D VGND VNB VPB VPWR Q
.ends

* Black-box entry subcircuit for sky130_fd_sc_hd__nor2_1 abstract view
.subckt sky130_fd_sc_hd__nor2_1 A B VGND VNB VPB VPWR Y
.ends

* Black-box entry subcircuit for sky130_fd_sc_hd__or3_1 abstract view
.subckt sky130_fd_sc_hd__or3_1 A B C VGND VNB VPB VPWR X
.ends

* Black-box entry subcircuit for sky130_fd_sc_hd__clkbuf_4 abstract view
.subckt sky130_fd_sc_hd__clkbuf_4 A VGND VNB VPB VPWR X
.ends

* Black-box entry subcircuit for sky130_fd_sc_hd__mux2_2 abstract view
.subckt sky130_fd_sc_hd__mux2_2 A0 A1 S VGND VNB VPB VPWR X
.ends

* Black-box entry subcircuit for sky130_fd_sc_hd__or2_4 abstract view
.subckt sky130_fd_sc_hd__or2_4 A B VGND VNB VPB VPWR X
.ends

* Black-box entry subcircuit for sky130_fd_sc_hd__nand2_1 abstract view
.subckt sky130_fd_sc_hd__nand2_1 A B VGND VNB VPB VPWR Y
.ends

* Black-box entry subcircuit for sky130_fd_sc_hd__buf_4 abstract view
.subckt sky130_fd_sc_hd__buf_4 A VGND VNB VPB VPWR X
.ends

* Black-box entry subcircuit for sky130_fd_sc_hd__or4_2 abstract view
.subckt sky130_fd_sc_hd__or4_2 A B C D VGND VNB VPB VPWR X
.ends

* Black-box entry subcircuit for sky130_fd_sc_hd__o2bb2a_1 abstract view
.subckt sky130_fd_sc_hd__o2bb2a_1 A1_N A2_N B1 B2 VGND VNB VPB VPWR X
.ends

* Black-box entry subcircuit for sky130_fd_sc_hd__clkinv_2 abstract view
.subckt sky130_fd_sc_hd__clkinv_2 A VGND VNB VPB VPWR Y
.ends

* Black-box entry subcircuit for sky130_fd_sc_hd__buf_6 abstract view
.subckt sky130_fd_sc_hd__buf_6 A VGND VNB VPB VPWR X
.ends

* Black-box entry subcircuit for sky130_fd_sc_hd__buf_12 abstract view
.subckt sky130_fd_sc_hd__buf_12 A VGND VNB VPB VPWR X
.ends

* Black-box entry subcircuit for sky130_fd_sc_hd__clkbuf_16 abstract view
.subckt sky130_fd_sc_hd__clkbuf_16 A VGND VNB VPB VPWR X
.ends

* Black-box entry subcircuit for sky130_fd_sc_hd__a21oi_2 abstract view
.subckt sky130_fd_sc_hd__a21oi_2 A1 A2 B1 VGND VNB VPB VPWR Y
.ends

* Black-box entry subcircuit for sky130_fd_sc_hd__and4_1 abstract view
.subckt sky130_fd_sc_hd__and4_1 A B C D VGND VNB VPB VPWR X
.ends

* Black-box entry subcircuit for sky130_fd_sc_hd__a21boi_1 abstract view
.subckt sky130_fd_sc_hd__a21boi_1 A1 A2 B1_N VGND VNB VPB VPWR Y
.ends

* Black-box entry subcircuit for sky130_fd_sc_hd__clkinv_4 abstract view
.subckt sky130_fd_sc_hd__clkinv_4 A VGND VNB VPB VPWR Y
.ends

* Black-box entry subcircuit for sky130_fd_sc_hd__nor3_1 abstract view
.subckt sky130_fd_sc_hd__nor3_1 A B C VGND VNB VPB VPWR Y
.ends

* Black-box entry subcircuit for sky130_fd_sc_hd__o22a_1 abstract view
.subckt sky130_fd_sc_hd__o22a_1 A1 A2 B1 B2 VGND VNB VPB VPWR X
.ends

* Black-box entry subcircuit for sky130_fd_sc_hd__a22oi_1 abstract view
.subckt sky130_fd_sc_hd__a22oi_1 A1 A2 B1 B2 VGND VNB VPB VPWR Y
.ends

* Black-box entry subcircuit for sky130_fd_sc_hd__o211a_1 abstract view
.subckt sky130_fd_sc_hd__o211a_1 A1 A2 B1 C1 VGND VNB VPB VPWR X
.ends

* Black-box entry subcircuit for sky130_fd_sc_hd__a32o_1 abstract view
.subckt sky130_fd_sc_hd__a32o_1 A1 A2 A3 B1 B2 VGND VNB VPB VPWR X
.ends

* Black-box entry subcircuit for sky130_fd_sc_hd__nor2_4 abstract view
.subckt sky130_fd_sc_hd__nor2_4 A B VGND VNB VPB VPWR Y
.ends

* Black-box entry subcircuit for sky130_fd_sc_hd__conb_1 abstract view
.subckt sky130_fd_sc_hd__conb_1 VGND VNB VPB VPWR HI LO
.ends

* Black-box entry subcircuit for sky130_fd_sc_hd__or2_2 abstract view
.subckt sky130_fd_sc_hd__or2_2 A B VGND VNB VPB VPWR X
.ends

* Black-box entry subcircuit for sky130_fd_sc_hd__and3_1 abstract view
.subckt sky130_fd_sc_hd__and3_1 A B C VGND VNB VPB VPWR X
.ends

* Black-box entry subcircuit for sky130_fd_sc_hd__a2111oi_1 abstract view
.subckt sky130_fd_sc_hd__a2111oi_1 A1 A2 B1 C1 D1 VGND VNB VPB VPWR Y
.ends

* Black-box entry subcircuit for sky130_fd_sc_hd__clkdlybuf4s25_1 abstract view
.subckt sky130_fd_sc_hd__clkdlybuf4s25_1 A VGND VNB VPB VPWR X
.ends

* Black-box entry subcircuit for sky130_fd_sc_hd__a22oi_2 abstract view
.subckt sky130_fd_sc_hd__a22oi_2 A1 A2 B1 B2 VGND VNB VPB VPWR Y
.ends

* Black-box entry subcircuit for sky130_fd_sc_hd__or3b_1 abstract view
.subckt sky130_fd_sc_hd__or3b_1 A B C_N VGND VNB VPB VPWR X
.ends

* Black-box entry subcircuit for sky130_fd_sc_hd__and2b_1 abstract view
.subckt sky130_fd_sc_hd__and2b_1 A_N B VGND VNB VPB VPWR X
.ends

* Black-box entry subcircuit for sky130_fd_sc_hd__a31oi_1 abstract view
.subckt sky130_fd_sc_hd__a31oi_1 A1 A2 A3 B1 VGND VNB VPB VPWR Y
.ends

* Black-box entry subcircuit for sky130_fd_sc_hd__and2_2 abstract view
.subckt sky130_fd_sc_hd__and2_2 A B VGND VNB VPB VPWR X
.ends

.subckt sram_wrapper addr0_to_sram[0] addr0_to_sram[10] addr0_to_sram[11] addr0_to_sram[12]
+ addr0_to_sram[13] addr0_to_sram[14] addr0_to_sram[15] addr0_to_sram[16] addr0_to_sram[17]
+ addr0_to_sram[18] addr0_to_sram[19] addr0_to_sram[1] addr0_to_sram[2] addr0_to_sram[3]
+ addr0_to_sram[4] addr0_to_sram[5] addr0_to_sram[6] addr0_to_sram[7] addr0_to_sram[8]
+ addr0_to_sram[9] addr_in[0] addr_in[10] addr_in[11] addr_in[12] addr_in[13] addr_in[14]
+ addr_in[15] addr_in[16] addr_in[17] addr_in[18] addr_in[19] addr_in[1] addr_in[2]
+ addr_in[3] addr_in[4] addr_in[5] addr_in[6] addr_in[7] addr_in[8] addr_in[9] addr_to_core_mem[0]
+ addr_to_core_mem[10] addr_to_core_mem[11] addr_to_core_mem[12] addr_to_core_mem[13]
+ addr_to_core_mem[14] addr_to_core_mem[15] addr_to_core_mem[16] addr_to_core_mem[17]
+ addr_to_core_mem[18] addr_to_core_mem[19] addr_to_core_mem[1] addr_to_core_mem[2]
+ addr_to_core_mem[3] addr_to_core_mem[4] addr_to_core_mem[5] addr_to_core_mem[6]
+ addr_to_core_mem[7] addr_to_core_mem[8] addr_to_core_mem[9] clk csb0_to_sram data_to_core_mem[0]
+ data_to_core_mem[10] data_to_core_mem[11] data_to_core_mem[12] data_to_core_mem[13]
+ data_to_core_mem[14] data_to_core_mem[15] data_to_core_mem[16] data_to_core_mem[17]
+ data_to_core_mem[18] data_to_core_mem[19] data_to_core_mem[1] data_to_core_mem[20]
+ data_to_core_mem[21] data_to_core_mem[22] data_to_core_mem[23] data_to_core_mem[24]
+ data_to_core_mem[25] data_to_core_mem[26] data_to_core_mem[27] data_to_core_mem[28]
+ data_to_core_mem[29] data_to_core_mem[2] data_to_core_mem[30] data_to_core_mem[31]
+ data_to_core_mem[3] data_to_core_mem[4] data_to_core_mem[5] data_to_core_mem[6]
+ data_to_core_mem[7] data_to_core_mem[8] data_to_core_mem[9] din0_to_sram[0] din0_to_sram[10]
+ din0_to_sram[11] din0_to_sram[12] din0_to_sram[13] din0_to_sram[14] din0_to_sram[15]
+ din0_to_sram[16] din0_to_sram[17] din0_to_sram[18] din0_to_sram[19] din0_to_sram[1]
+ din0_to_sram[20] din0_to_sram[21] din0_to_sram[22] din0_to_sram[23] din0_to_sram[24]
+ din0_to_sram[25] din0_to_sram[26] din0_to_sram[27] din0_to_sram[28] din0_to_sram[29]
+ din0_to_sram[2] din0_to_sram[30] din0_to_sram[31] din0_to_sram[3] din0_to_sram[4]
+ din0_to_sram[5] din0_to_sram[6] din0_to_sram[7] din0_to_sram[8] din0_to_sram[9]
+ dout0_to_sram[0] dout0_to_sram[10] dout0_to_sram[11] dout0_to_sram[12] dout0_to_sram[13]
+ dout0_to_sram[14] dout0_to_sram[15] dout0_to_sram[16] dout0_to_sram[17] dout0_to_sram[18]
+ dout0_to_sram[19] dout0_to_sram[1] dout0_to_sram[20] dout0_to_sram[21] dout0_to_sram[22]
+ dout0_to_sram[23] dout0_to_sram[24] dout0_to_sram[25] dout0_to_sram[26] dout0_to_sram[27]
+ dout0_to_sram[28] dout0_to_sram[29] dout0_to_sram[2] dout0_to_sram[30] dout0_to_sram[31]
+ dout0_to_sram[3] dout0_to_sram[4] dout0_to_sram[5] dout0_to_sram[6] dout0_to_sram[7]
+ dout0_to_sram[8] dout0_to_sram[9] is_loading_memory_into_core rd_data_out[0] rd_data_out[100]
+ rd_data_out[101] rd_data_out[102] rd_data_out[103] rd_data_out[104] rd_data_out[105]
+ rd_data_out[106] rd_data_out[107] rd_data_out[108] rd_data_out[109] rd_data_out[10]
+ rd_data_out[110] rd_data_out[111] rd_data_out[112] rd_data_out[113] rd_data_out[114]
+ rd_data_out[115] rd_data_out[116] rd_data_out[117] rd_data_out[118] rd_data_out[119]
+ rd_data_out[11] rd_data_out[120] rd_data_out[121] rd_data_out[122] rd_data_out[123]
+ rd_data_out[124] rd_data_out[125] rd_data_out[126] rd_data_out[127] rd_data_out[12]
+ rd_data_out[13] rd_data_out[14] rd_data_out[15] rd_data_out[16] rd_data_out[17]
+ rd_data_out[18] rd_data_out[19] rd_data_out[1] rd_data_out[20] rd_data_out[21] rd_data_out[22]
+ rd_data_out[23] rd_data_out[24] rd_data_out[25] rd_data_out[26] rd_data_out[27]
+ rd_data_out[28] rd_data_out[29] rd_data_out[2] rd_data_out[30] rd_data_out[31] rd_data_out[32]
+ rd_data_out[33] rd_data_out[34] rd_data_out[35] rd_data_out[36] rd_data_out[37]
+ rd_data_out[38] rd_data_out[39] rd_data_out[3] rd_data_out[40] rd_data_out[41] rd_data_out[42]
+ rd_data_out[43] rd_data_out[44] rd_data_out[45] rd_data_out[46] rd_data_out[47]
+ rd_data_out[48] rd_data_out[49] rd_data_out[4] rd_data_out[50] rd_data_out[51] rd_data_out[52]
+ rd_data_out[53] rd_data_out[54] rd_data_out[55] rd_data_out[56] rd_data_out[57]
+ rd_data_out[58] rd_data_out[59] rd_data_out[5] rd_data_out[60] rd_data_out[61] rd_data_out[62]
+ rd_data_out[63] rd_data_out[64] rd_data_out[65] rd_data_out[66] rd_data_out[67]
+ rd_data_out[68] rd_data_out[69] rd_data_out[6] rd_data_out[70] rd_data_out[71] rd_data_out[72]
+ rd_data_out[73] rd_data_out[74] rd_data_out[75] rd_data_out[76] rd_data_out[77]
+ rd_data_out[78] rd_data_out[79] rd_data_out[7] rd_data_out[80] rd_data_out[81] rd_data_out[82]
+ rd_data_out[83] rd_data_out[84] rd_data_out[85] rd_data_out[86] rd_data_out[87]
+ rd_data_out[88] rd_data_out[89] rd_data_out[8] rd_data_out[90] rd_data_out[91] rd_data_out[92]
+ rd_data_out[93] rd_data_out[94] rd_data_out[95] rd_data_out[96] rd_data_out[97]
+ rd_data_out[98] rd_data_out[99] rd_data_out[9] ready requested reset reset_mem_req
+ spare_wen0_to_sram vccd1 vssd1 we we_to_sram wr_data[0] wr_data[100] wr_data[101]
+ wr_data[102] wr_data[103] wr_data[104] wr_data[105] wr_data[106] wr_data[107] wr_data[108]
+ wr_data[109] wr_data[10] wr_data[110] wr_data[111] wr_data[112] wr_data[113] wr_data[114]
+ wr_data[115] wr_data[116] wr_data[117] wr_data[118] wr_data[119] wr_data[11] wr_data[120]
+ wr_data[121] wr_data[122] wr_data[123] wr_data[124] wr_data[125] wr_data[126] wr_data[127]
+ wr_data[12] wr_data[13] wr_data[14] wr_data[15] wr_data[16] wr_data[17] wr_data[18]
+ wr_data[19] wr_data[1] wr_data[20] wr_data[21] wr_data[22] wr_data[23] wr_data[24]
+ wr_data[25] wr_data[26] wr_data[27] wr_data[28] wr_data[29] wr_data[2] wr_data[30]
+ wr_data[31] wr_data[32] wr_data[33] wr_data[34] wr_data[35] wr_data[36] wr_data[37]
+ wr_data[38] wr_data[39] wr_data[3] wr_data[40] wr_data[41] wr_data[42] wr_data[43]
+ wr_data[44] wr_data[45] wr_data[46] wr_data[47] wr_data[48] wr_data[49] wr_data[4]
+ wr_data[50] wr_data[51] wr_data[52] wr_data[53] wr_data[54] wr_data[55] wr_data[56]
+ wr_data[57] wr_data[58] wr_data[59] wr_data[5] wr_data[60] wr_data[61] wr_data[62]
+ wr_data[63] wr_data[64] wr_data[65] wr_data[66] wr_data[67] wr_data[68] wr_data[69]
+ wr_data[6] wr_data[70] wr_data[71] wr_data[72] wr_data[73] wr_data[74] wr_data[75]
+ wr_data[76] wr_data[77] wr_data[78] wr_data[79] wr_data[7] wr_data[80] wr_data[81]
+ wr_data[82] wr_data[83] wr_data[84] wr_data[85] wr_data[86] wr_data[87] wr_data[88]
+ wr_data[89] wr_data[8] wr_data[90] wr_data[91] wr_data[92] wr_data[93] wr_data[94]
+ wr_data[95] wr_data[96] wr_data[97] wr_data[98] wr_data[99] wr_data[9]
XTAP_199 vssd1 vccd1 sky130_fd_sc_hd__tapvpwrvgnd_1
XTAP_188 vssd1 vccd1 sky130_fd_sc_hd__tapvpwrvgnd_1
XTAP_177 vssd1 vccd1 sky130_fd_sc_hd__tapvpwrvgnd_1
XFILLER_27_406 vssd1 vssd1 vccd1 vccd1 sky130_fd_sc_hd__fill_1
XANTENNA__1151__B1 _1297_/B1 vssd1 vssd1 vccd1 vccd1 sky130_fd_sc_hd__diode_2
XANTENNA__1454__A1 _1454_/A1 vssd1 vssd1 vccd1 vccd1 sky130_fd_sc_hd__diode_2
XFILLER_22_188 vssd1 vssd1 vccd1 vccd1 sky130_fd_sc_hd__decap_8
XFILLER_7_7 vssd1 vssd1 vccd1 vccd1 sky130_fd_sc_hd__decap_4
XANTENNA__1142__B1 input73/X vssd1 vssd1 vccd1 vccd1 sky130_fd_sc_hd__diode_2
XFILLER_45_225 vssd1 vssd1 vccd1 vccd1 sky130_fd_sc_hd__fill_2
XANTENNA_input127_A wr_data[115] vssd1 vssd1 vccd1 vccd1 sky130_fd_sc_hd__diode_2
XANTENNA__1445__A1 input30/X vssd1 vssd1 vccd1 vccd1 sky130_fd_sc_hd__diode_2
XFILLER_13_144 vssd1 vssd1 vccd1 vccd1 sky130_fd_sc_hd__fill_1
XFILLER_9_104 vssd1 vssd1 vccd1 vccd1 sky130_fd_sc_hd__decap_8
XANTENNA_input92_A dout0_to_sram[27] vssd1 vssd1 vccd1 vccd1 sky130_fd_sc_hd__diode_2
XFILLER_3_23 vssd1 vssd1 vccd1 vccd1 sky130_fd_sc_hd__decap_4
XANTENNA__1381__A0 _0869_/A vssd1 vssd1 vccd1 vccd1 sky130_fd_sc_hd__diode_2
X_1270_ _1668_/Q _1266_/X input87/X _1267_/X vssd1 vssd1 vccd1 vccd1 _1668_/D sky130_fd_sc_hd__a22o_1
XFILLER_51_228 vssd1 vssd1 vccd1 vccd1 sky130_fd_sc_hd__decap_4
X_0985_ _0985_/A vssd1 vssd1 vccd1 vccd1 _0985_/Y sky130_fd_sc_hd__inv_2
XFILLER_8_192 vssd1 vssd1 vccd1 vccd1 sky130_fd_sc_hd__decap_4
Xoutput401 _1667_/Q vssd1 vssd1 vccd1 vccd1 rd_data_out[85] sky130_fd_sc_hd__buf_2
X_1606_ _1654_/CLK _1606_/D vssd1 vssd1 vccd1 vccd1 _1606_/Q sky130_fd_sc_hd__dfxtp_1
Xoutput412 _1677_/Q vssd1 vssd1 vccd1 vccd1 rd_data_out[95] sky130_fd_sc_hd__buf_2
X_1537_ _1094_/X _1537_/A1 _1577_/S vssd1 vssd1 vccd1 vccd1 _1537_/X sky130_fd_sc_hd__mux2_1
X_1468_ _1467_/X _1015_/X _1580_/S vssd1 vssd1 vccd1 vccd1 _1468_/X sky130_fd_sc_hd__mux2_1
X_1399_ input3/X _0910_/X _1447_/S vssd1 vssd1 vccd1 vccd1 _1399_/X sky130_fd_sc_hd__mux2_1
XFILLER_27_225 vssd1 vssd1 vccd1 vccd1 sky130_fd_sc_hd__decap_8
XFILLER_50_283 vssd1 vssd1 vccd1 vccd1 sky130_fd_sc_hd__decap_6
XFILLER_10_136 vssd1 vssd1 vccd1 vccd1 sky130_fd_sc_hd__decap_4
XFILLER_12_87 vssd1 vssd1 vccd1 vccd1 sky130_fd_sc_hd__decap_4
XANTENNA__1363__A0 _0835_/A vssd1 vssd1 vccd1 vccd1 sky130_fd_sc_hd__diode_2
XFILLER_37_73 vssd1 vssd1 vccd1 vccd1 sky130_fd_sc_hd__decap_12
XFILLER_37_95 vssd1 vssd1 vccd1 vccd1 sky130_fd_sc_hd__decap_4
XFILLER_41_250 vssd1 vssd1 vccd1 vccd1 sky130_fd_sc_hd__decap_4
X_0770_ _0776_/A _1581_/S _0768_/A _0768_/B vssd1 vssd1 vccd1 vccd1 _0773_/A sky130_fd_sc_hd__a211o_1
XFILLER_5_151 vssd1 vssd1 vccd1 vccd1 sky130_fd_sc_hd__decap_4
X_1322_ _1322_/A vssd1 vssd1 vccd1 vccd1 _1322_/X sky130_fd_sc_hd__clkbuf_2
X_1253_ _1253_/A vssd1 vssd1 vccd1 vccd1 _1253_/X sky130_fd_sc_hd__dlymetal6s2s_1
XFILLER_49_350 vssd1 vssd1 vccd1 vccd1 sky130_fd_sc_hd__fill_1
XFILLER_49_361 vssd1 vssd1 vccd1 vccd1 sky130_fd_sc_hd__decap_4
X_1184_ _1710_/Q vssd1 vssd1 vccd1 vccd1 _1282_/A sky130_fd_sc_hd__inv_2
XANTENNA__1409__A1 input24/X vssd1 vssd1 vccd1 vccd1 sky130_fd_sc_hd__diode_2
Xclkbuf_4_12_0_clk clkbuf_3_6_0_clk/X vssd1 vssd1 vccd1 vccd1 _1699_/CLK sky130_fd_sc_hd__clkbuf_2
X_0968_ _0968_/A _0968_/B vssd1 vssd1 vccd1 vccd1 _0980_/B sky130_fd_sc_hd__or2_1
XANTENNA__1068__B _1076_/B vssd1 vssd1 vccd1 vccd1 sky130_fd_sc_hd__diode_2
X_0899_ _0898_/A _0909_/C _0898_/Y vssd1 vssd1 vccd1 vccd1 _0899_/Y sky130_fd_sc_hd__a21oi_1
Xoutput253 _1368_/X vssd1 vssd1 vccd1 vccd1 addr0_to_sram[5] sky130_fd_sc_hd__buf_2
Xoutput242 _1416_/X vssd1 vssd1 vccd1 vccd1 addr0_to_sram[13] sky130_fd_sc_hd__buf_2
Xoutput264 _1516_/X vssd1 vssd1 vccd1 vccd1 din0_to_sram[15] sky130_fd_sc_hd__buf_2
XANTENNA__1345__A0 _0814_/A vssd1 vssd1 vccd1 vccd1 sky130_fd_sc_hd__diode_2
Xoutput286 _1480_/X vssd1 vssd1 vccd1 vccd1 din0_to_sram[6] sky130_fd_sc_hd__buf_2
Xoutput275 _1556_/X vssd1 vssd1 vccd1 vccd1 din0_to_sram[25] sky130_fd_sc_hd__buf_2
Xoutput297 _1688_/Q vssd1 vssd1 vccd1 vccd1 rd_data_out[106] sky130_fd_sc_hd__buf_2
XFILLER_15_228 vssd1 vssd1 vccd1 vccd1 sky130_fd_sc_hd__decap_4
XFILLER_15_239 vssd1 vssd1 vccd1 vccd1 sky130_fd_sc_hd__decap_4
XFILLER_23_294 vssd1 vssd1 vccd1 vccd1 sky130_fd_sc_hd__decap_6
XANTENNA__1259__A _1273_/A vssd1 vssd1 vccd1 vccd1 sky130_fd_sc_hd__diode_2
XANTENNA_input194_A wr_data[60] vssd1 vssd1 vccd1 vccd1 sky130_fd_sc_hd__diode_2
XFILLER_2_121 vssd1 vssd1 vccd1 vccd1 sky130_fd_sc_hd__decap_6
XANTENNA_input55_A data_to_core_mem[22] vssd1 vssd1 vccd1 vccd1 sky130_fd_sc_hd__diode_2
XFILLER_2_176 vssd1 vssd1 vccd1 vccd1 sky130_fd_sc_hd__fill_1
XFILLER_48_72 vssd1 vssd1 vccd1 vccd1 sky130_fd_sc_hd__decap_4
XFILLER_0_13 vssd1 vssd1 vccd1 vccd1 sky130_fd_sc_hd__decap_4
XFILLER_46_342 vssd1 vssd1 vccd1 vccd1 sky130_fd_sc_hd__fill_1
XFILLER_0_57 vssd1 vssd1 vccd1 vccd1 sky130_fd_sc_hd__decap_4
XANTENNA_output309_A _1699_/Q vssd1 vssd1 vccd1 vccd1 sky130_fd_sc_hd__diode_2
XFILLER_61_367 vssd1 vssd1 vccd1 vccd1 sky130_fd_sc_hd__decap_4
XFILLER_9_11 vssd1 vssd1 vccd1 vccd1 sky130_fd_sc_hd__decap_8
XFILLER_9_66 vssd1 vssd1 vccd1 vccd1 sky130_fd_sc_hd__decap_8
XFILLER_9_55 vssd1 vssd1 vccd1 vccd1 sky130_fd_sc_hd__fill_1
X_0822_ _0814_/B _0811_/Y _0832_/B vssd1 vssd1 vccd1 vccd1 _0822_/X sky130_fd_sc_hd__o21a_1
Xclkbuf_3_1_0_clk clkbuf_3_1_0_clk/A vssd1 vssd1 vccd1 vccd1 clkbuf_4_3_0_clk/A sky130_fd_sc_hd__clkbuf_2
XFILLER_50_3 vssd1 vssd1 vccd1 vccd1 sky130_fd_sc_hd__decap_3
XANTENNA__1327__B1 input94/X vssd1 vssd1 vccd1 vccd1 sky130_fd_sc_hd__diode_2
X_1305_ _1691_/Q _1300_/X input77/X _1301_/X vssd1 vssd1 vccd1 vccd1 _1691_/D sky130_fd_sc_hd__a22o_1
XFILLER_56_128 vssd1 vssd1 vccd1 vccd1 sky130_fd_sc_hd__decap_4
X_1236_ _1252_/A vssd1 vssd1 vccd1 vccd1 _1236_/X sky130_fd_sc_hd__buf_2
XFILLER_37_320 vssd1 vssd1 vccd1 vccd1 sky130_fd_sc_hd__decap_4
XFILLER_37_331 vssd1 vssd1 vccd1 vccd1 sky130_fd_sc_hd__decap_4
X_1167_ _1601_/Q _1161_/X input83/X _1162_/X vssd1 vssd1 vccd1 vccd1 _1601_/D sky130_fd_sc_hd__a22o_1
XFILLER_52_334 vssd1 vssd1 vccd1 vccd1 sky130_fd_sc_hd__decap_4
XFILLER_52_378 vssd1 vssd1 vccd1 vccd1 sky130_fd_sc_hd__decap_4
X_1098_ _1098_/A vssd1 vssd1 vccd1 vccd1 _1098_/X sky130_fd_sc_hd__clkbuf_1
XFILLER_20_264 vssd1 vssd1 vccd1 vccd1 sky130_fd_sc_hd__decap_4
XFILLER_20_297 vssd1 vssd1 vccd1 vccd1 sky130_fd_sc_hd__decap_4
XANTENNA__1318__B1 input87/X vssd1 vssd1 vccd1 vccd1 sky130_fd_sc_hd__diode_2
XFILLER_18_31 vssd1 vssd1 vccd1 vccd1 sky130_fd_sc_hd__decap_4
XFILLER_47_139 vssd1 vssd1 vccd1 vccd1 sky130_fd_sc_hd__decap_4
XFILLER_28_386 vssd1 vssd1 vccd1 vccd1 sky130_fd_sc_hd__fill_1
XFILLER_43_323 vssd1 vssd1 vccd1 vccd1 sky130_fd_sc_hd__fill_1
XANTENNA_input207_A wr_data[72] vssd1 vssd1 vccd1 vccd1 sky130_fd_sc_hd__diode_2
XFILLER_11_220 vssd1 vssd1 vccd1 vccd1 sky130_fd_sc_hd__decap_4
XFILLER_11_253 vssd1 vssd1 vccd1 vccd1 sky130_fd_sc_hd__decap_4
XFILLER_7_246 vssd1 vssd1 vccd1 vccd1 sky130_fd_sc_hd__decap_4
XANTENNA__1557__A0 _1115_/X vssd1 vssd1 vccd1 vccd1 sky130_fd_sc_hd__diode_2
XTAP_507 vssd1 vccd1 sky130_fd_sc_hd__tapvpwrvgnd_1
XTAP_518 vssd1 vccd1 sky130_fd_sc_hd__tapvpwrvgnd_1
XTAP_529 vssd1 vccd1 sky130_fd_sc_hd__tapvpwrvgnd_1
XANTENNA__1309__B1 input79/X vssd1 vssd1 vccd1 vccd1 sky130_fd_sc_hd__diode_2
XFILLER_59_60 vssd1 vssd1 vccd1 vccd1 sky130_fd_sc_hd__decap_4
XFILLER_22_7 vssd1 vssd1 vccd1 vccd1 sky130_fd_sc_hd__decap_8
XFILLER_19_320 vssd1 vssd1 vccd1 vccd1 sky130_fd_sc_hd__decap_4
X_1021_ _1021_/A vssd1 vssd1 vccd1 vccd1 _1021_/X sky130_fd_sc_hd__clkbuf_1
XFILLER_46_161 vssd1 vssd1 vccd1 vccd1 sky130_fd_sc_hd__decap_4
XFILLER_46_172 vssd1 vssd1 vccd1 vccd1 sky130_fd_sc_hd__decap_4
XFILLER_61_142 vssd1 vssd1 vccd1 vccd1 sky130_fd_sc_hd__decap_4
XFILLER_34_345 vssd1 vssd1 vccd1 vccd1 sky130_fd_sc_hd__decap_4
X_0805_ _0814_/A vssd1 vssd1 vccd1 vccd1 _0821_/A sky130_fd_sc_hd__inv_2
XANTENNA__1548__A0 _1547_/X vssd1 vssd1 vccd1 vccd1 sky130_fd_sc_hd__diode_2
XANTENNA__1081__B _1097_/B vssd1 vssd1 vccd1 vccd1 sky130_fd_sc_hd__diode_2
X_1219_ _1634_/Q _1217_/X input85/X _1218_/X vssd1 vssd1 vccd1 vccd1 _1634_/D sky130_fd_sc_hd__a22o_1
XFILLER_25_301 vssd1 vssd1 vccd1 vccd1 sky130_fd_sc_hd__decap_4
XFILLER_25_367 vssd1 vssd1 vccd1 vccd1 sky130_fd_sc_hd__decap_4
XFILLER_40_304 vssd1 vssd1 vccd1 vccd1 sky130_fd_sc_hd__decap_4
XFILLER_52_164 vssd1 vssd1 vccd1 vccd1 sky130_fd_sc_hd__decap_6
XFILLER_40_337 vssd1 vssd1 vccd1 vccd1 sky130_fd_sc_hd__decap_4
XFILLER_52_197 vssd1 vssd1 vccd1 vccd1 sky130_fd_sc_hd__decap_4
XANTENNA__1251__A2 _1245_/X vssd1 vssd1 vccd1 vccd1 sky130_fd_sc_hd__diode_2
XANTENNA__0776__C_N _0793_/A vssd1 vssd1 vccd1 vccd1 sky130_fd_sc_hd__diode_2
XFILLER_20_54 vssd1 vssd1 vccd1 vccd1 sky130_fd_sc_hd__decap_4
XANTENNA_input157_A wr_data[27] vssd1 vssd1 vccd1 vccd1 sky130_fd_sc_hd__diode_2
XANTENNA_input18_A addr_in[7] vssd1 vssd1 vccd1 vccd1 sky130_fd_sc_hd__diode_2
XFILLER_28_172 vssd1 vssd1 vccd1 vccd1 sky130_fd_sc_hd__decap_8
XFILLER_16_367 vssd1 vssd1 vccd1 vccd1 sky130_fd_sc_hd__decap_4
XFILLER_45_51 vssd1 vssd1 vccd1 vccd1 sky130_fd_sc_hd__decap_4
XFILLER_31_304 vssd1 vssd1 vccd1 vccd1 sky130_fd_sc_hd__fill_1
XFILLER_31_326 vssd1 vssd1 vccd1 vccd1 sky130_fd_sc_hd__decap_4
XFILLER_45_95 vssd1 vssd1 vccd1 vccd1 sky130_fd_sc_hd__fill_1
XFILLER_31_337 vssd1 vssd1 vccd1 vccd1 sky130_fd_sc_hd__decap_3
XFILLER_61_61 vssd1 vssd1 vccd1 vccd1 sky130_fd_sc_hd__decap_4
XANTENNA__1242__A2 _1236_/X vssd1 vssd1 vccd1 vccd1 sky130_fd_sc_hd__diode_2
XANTENNA_output376_A _1644_/Q vssd1 vssd1 vccd1 vccd1 sky130_fd_sc_hd__diode_2
X_1570_ _1569_/X _1570_/A1 _1578_/S vssd1 vssd1 vccd1 vccd1 _1570_/X sky130_fd_sc_hd__mux2_1
XTAP_304 vssd1 vccd1 sky130_fd_sc_hd__tapvpwrvgnd_1
XTAP_315 vssd1 vccd1 sky130_fd_sc_hd__tapvpwrvgnd_1
XTAP_326 vssd1 vccd1 sky130_fd_sc_hd__tapvpwrvgnd_1
XTAP_337 vssd1 vccd1 sky130_fd_sc_hd__tapvpwrvgnd_1
XTAP_348 vssd1 vccd1 sky130_fd_sc_hd__tapvpwrvgnd_1
XTAP_359 vssd1 vccd1 sky130_fd_sc_hd__tapvpwrvgnd_1
X_1004_ _1004_/A _1447_/S vssd1 vssd1 vccd1 vccd1 _1005_/A sky130_fd_sc_hd__and2_1
XFILLER_22_304 vssd1 vssd1 vccd1 vccd1 sky130_fd_sc_hd__decap_4
XFILLER_34_153 vssd1 vssd1 vccd1 vccd1 sky130_fd_sc_hd__decap_4
XFILLER_22_337 vssd1 vssd1 vccd1 vccd1 sky130_fd_sc_hd__decap_4
XFILLER_22_359 vssd1 vssd1 vccd1 vccd1 sky130_fd_sc_hd__decap_4
XFILLER_30_381 vssd1 vssd1 vccd1 vccd1 sky130_fd_sc_hd__fill_1
XANTENNA__1076__B _1076_/B vssd1 vssd1 vccd1 vccd1 sky130_fd_sc_hd__diode_2
XFILLER_1_219 vssd1 vssd1 vccd1 vccd1 sky130_fd_sc_hd__decap_4
X_1699_ _1699_/CLK _1699_/D vssd1 vssd1 vccd1 vccd1 _1699_/Q sky130_fd_sc_hd__dfxtp_1
XFILLER_57_223 vssd1 vssd1 vccd1 vccd1 sky130_fd_sc_hd__fill_1
XFILLER_57_245 vssd1 vssd1 vccd1 vccd1 sky130_fd_sc_hd__decap_4
XFILLER_15_32 vssd1 vssd1 vccd1 vccd1 sky130_fd_sc_hd__fill_1
XFILLER_13_315 vssd1 vssd1 vccd1 vccd1 sky130_fd_sc_hd__decap_4
XFILLER_40_101 vssd1 vssd1 vccd1 vccd1 sky130_fd_sc_hd__fill_2
XFILLER_13_359 vssd1 vssd1 vccd1 vccd1 sky130_fd_sc_hd__decap_4
XFILLER_40_189 vssd1 vssd1 vccd1 vccd1 sky130_fd_sc_hd__fill_1
XFILLER_31_64 vssd1 vssd1 vccd1 vccd1 sky130_fd_sc_hd__decap_6
Xinput120 wr_data[109] vssd1 vssd1 vccd1 vccd1 _1060_/A sky130_fd_sc_hd__clkbuf_1
Xinput153 wr_data[23] vssd1 vssd1 vccd1 vccd1 _1547_/A1 sky130_fd_sc_hd__clkbuf_1
Xinput142 wr_data[13] vssd1 vssd1 vccd1 vccd1 _1507_/A1 sky130_fd_sc_hd__clkbuf_2
XFILLER_48_212 vssd1 vssd1 vccd1 vccd1 sky130_fd_sc_hd__decap_6
Xinput131 wr_data[119] vssd1 vssd1 vccd1 vccd1 _1102_/A sky130_fd_sc_hd__clkbuf_1
Xinput175 wr_data[43] vssd1 vssd1 vccd1 vccd1 _1498_/A1 sky130_fd_sc_hd__clkbuf_1
Xinput164 wr_data[33] vssd1 vssd1 vccd1 vccd1 _1458_/A1 sky130_fd_sc_hd__clkbuf_2
XFILLER_48_245 vssd1 vssd1 vccd1 vccd1 sky130_fd_sc_hd__fill_1
Xinput186 wr_data[53] vssd1 vssd1 vccd1 vccd1 _1538_/A1 sky130_fd_sc_hd__clkbuf_1
Xinput197 wr_data[63] vssd1 vssd1 vccd1 vccd1 _1578_/A1 sky130_fd_sc_hd__clkbuf_1
XFILLER_16_197 vssd1 vssd1 vccd1 vccd1 sky130_fd_sc_hd__decap_4
XFILLER_31_123 vssd1 vssd1 vccd1 vccd1 sky130_fd_sc_hd__fill_1
XFILLER_31_134 vssd1 vssd1 vccd1 vccd1 sky130_fd_sc_hd__decap_6
XANTENNA__1215__A2 _1210_/X vssd1 vssd1 vccd1 vccd1 sky130_fd_sc_hd__diode_2
XFILLER_8_341 vssd1 vssd1 vccd1 vccd1 sky130_fd_sc_hd__decap_4
X_1622_ _1654_/CLK _1622_/D vssd1 vssd1 vccd1 vccd1 _1622_/Q sky130_fd_sc_hd__dfxtp_1
XANTENNA__0974__A1 input9/X vssd1 vssd1 vccd1 vccd1 sky130_fd_sc_hd__diode_2
X_1553_ _1111_/X _1553_/A1 _1577_/S vssd1 vssd1 vccd1 vccd1 _1553_/X sky130_fd_sc_hd__mux2_1
X_1484_ _1483_/X _1033_/X _1580_/S vssd1 vssd1 vccd1 vccd1 _1484_/X sky130_fd_sc_hd__mux2_4
XTAP_134 vssd1 vccd1 sky130_fd_sc_hd__tapvpwrvgnd_1
XTAP_145 vssd1 vccd1 sky130_fd_sc_hd__tapvpwrvgnd_1
XTAP_156 vssd1 vccd1 sky130_fd_sc_hd__tapvpwrvgnd_1
XTAP_189 vssd1 vccd1 sky130_fd_sc_hd__tapvpwrvgnd_1
XTAP_178 vssd1 vccd1 sky130_fd_sc_hd__tapvpwrvgnd_1
XTAP_167 vssd1 vccd1 sky130_fd_sc_hd__tapvpwrvgnd_1
XANTENNA__1151__B2 _1148_/X vssd1 vssd1 vccd1 vccd1 sky130_fd_sc_hd__diode_2
XFILLER_39_267 vssd1 vssd1 vccd1 vccd1 sky130_fd_sc_hd__decap_4
XFILLER_39_289 vssd1 vssd1 vccd1 vccd1 sky130_fd_sc_hd__decap_6
XFILLER_54_248 vssd1 vssd1 vccd1 vccd1 sky130_fd_sc_hd__decap_4
XFILLER_22_101 vssd1 vssd1 vccd1 vccd1 sky130_fd_sc_hd__fill_1
XFILLER_10_307 vssd1 vssd1 vccd1 vccd1 sky130_fd_sc_hd__fill_1
XANTENNA__1087__A _1132_/A vssd1 vssd1 vccd1 vccd1 sky130_fd_sc_hd__diode_2
XANTENNA__1390__A1 _0881_/A vssd1 vssd1 vccd1 vccd1 sky130_fd_sc_hd__diode_2
XANTENNA__1142__B2 _1141_/X vssd1 vssd1 vccd1 vccd1 sky130_fd_sc_hd__diode_2
XANTENNA__1142__A1 _1582_/Q vssd1 vssd1 vccd1 vccd1 sky130_fd_sc_hd__diode_2
XFILLER_26_31 vssd1 vssd1 vccd1 vccd1 sky130_fd_sc_hd__decap_6
XFILLER_26_53 vssd1 vssd1 vccd1 vccd1 sky130_fd_sc_hd__decap_8
XFILLER_60_218 vssd1 vssd1 vccd1 vccd1 sky130_fd_sc_hd__decap_4
XFILLER_53_292 vssd1 vssd1 vccd1 vccd1 sky130_fd_sc_hd__fill_1
XFILLER_13_167 vssd1 vssd1 vccd1 vccd1 sky130_fd_sc_hd__fill_1
XANTENNA_input85_A dout0_to_sram[20] vssd1 vssd1 vccd1 vccd1 sky130_fd_sc_hd__diode_2
XFILLER_5_344 vssd1 vssd1 vccd1 vccd1 sky130_fd_sc_hd__decap_4
XFILLER_5_388 vssd1 vssd1 vccd1 vccd1 sky130_fd_sc_hd__decap_4
XFILLER_3_13 vssd1 vssd1 vccd1 vccd1 sky130_fd_sc_hd__fill_1
XFILLER_3_57 vssd1 vssd1 vccd1 vccd1 sky130_fd_sc_hd__fill_2
XANTENNA_output339_A _1611_/Q vssd1 vssd1 vccd1 vccd1 sky130_fd_sc_hd__diode_2
XANTENNA_output241_A _1410_/X vssd1 vssd1 vccd1 vccd1 sky130_fd_sc_hd__diode_2
XFILLER_36_248 vssd1 vssd1 vccd1 vccd1 sky130_fd_sc_hd__decap_4
X_0984_ _0987_/A _0984_/B vssd1 vssd1 vccd1 vccd1 _0985_/A sky130_fd_sc_hd__or2_1
Xoutput402 _1668_/Q vssd1 vssd1 vccd1 vccd1 rd_data_out[86] sky130_fd_sc_hd__buf_2
Xoutput413 _1678_/Q vssd1 vssd1 vccd1 vccd1 rd_data_out[96] sky130_fd_sc_hd__buf_2
X_1605_ _1654_/CLK _1605_/D vssd1 vssd1 vccd1 vccd1 _1605_/Q sky130_fd_sc_hd__dfxtp_2
X_1536_ _1535_/X _1088_/X _1580_/S vssd1 vssd1 vccd1 vccd1 _1536_/X sky130_fd_sc_hd__mux2_1
XANTENNA__1372__A1 _0850_/A vssd1 vssd1 vccd1 vccd1 sky130_fd_sc_hd__diode_2
X_1467_ _1466_/X _1467_/A1 _1579_/S vssd1 vssd1 vccd1 vccd1 _1467_/X sky130_fd_sc_hd__mux2_1
X_1398_ _0902_/Y _1397_/X _1452_/S vssd1 vssd1 vccd1 vccd1 _1398_/X sky130_fd_sc_hd__mux2_4
XFILLER_27_215 vssd1 vssd1 vccd1 vccd1 sky130_fd_sc_hd__decap_8
XFILLER_50_273 vssd1 vssd1 vccd1 vccd1 sky130_fd_sc_hd__decap_8
XFILLER_10_159 vssd1 vssd1 vccd1 vccd1 sky130_fd_sc_hd__fill_1
XFILLER_12_99 vssd1 vssd1 vccd1 vccd1 sky130_fd_sc_hd__decap_4
XFILLER_2_347 vssd1 vssd1 vccd1 vccd1 sky130_fd_sc_hd__decap_4