* NGSPICE file created from sram_wrapper.ext - technology: sky130A

* Black-box entry subcircuit for sky130_fd_sc_hd__tapvpwrvgnd_1 abstract view
.subckt sky130_fd_sc_hd__tapvpwrvgnd_1 VGND VPWR
.ends

* Black-box entry subcircuit for sky130_fd_sc_hd__decap_4 abstract view
.subckt sky130_fd_sc_hd__decap_4 VGND VNB VPB VPWR
.ends

* Black-box entry subcircuit for sky130_fd_sc_hd__diode_2 abstract view
.subckt sky130_fd_sc_hd__diode_2 DIODE VGND VNB VPB VPWR
.ends

* Black-box entry subcircuit for sky130_fd_sc_hd__decap_8 abstract view
.subckt sky130_fd_sc_hd__decap_8 VGND VNB VPB VPWR
.ends

* Black-box entry subcircuit for sky130_fd_sc_hd__mux2_1 abstract view
.subckt sky130_fd_sc_hd__mux2_1 A0 A1 S VGND VNB VPB VPWR X
.ends

* Black-box entry subcircuit for sky130_fd_sc_hd__buf_2 abstract view
.subckt sky130_fd_sc_hd__buf_2 A VGND VNB VPB VPWR X
.ends

* Black-box entry subcircuit for sky130_fd_sc_hd__decap_6 abstract view
.subckt sky130_fd_sc_hd__decap_6 VGND VNB VPB VPWR
.ends

* Black-box entry subcircuit for sky130_fd_sc_hd__fill_1 abstract view
.subckt sky130_fd_sc_hd__fill_1 VGND VNB VPB VPWR
.ends

* Black-box entry subcircuit for sky130_fd_sc_hd__decap_3 abstract view
.subckt sky130_fd_sc_hd__decap_3 VGND VNB VPB VPWR
.ends

* Black-box entry subcircuit for sky130_fd_sc_hd__clkbuf_2 abstract view
.subckt sky130_fd_sc_hd__clkbuf_2 A VGND VNB VPB VPWR X
.ends

* Black-box entry subcircuit for sky130_fd_sc_hd__mux2_2 abstract view
.subckt sky130_fd_sc_hd__mux2_2 A0 A1 S VGND VNB VPB VPWR X
.ends

* Black-box entry subcircuit for sky130_fd_sc_hd__a22o_1 abstract view
.subckt sky130_fd_sc_hd__a22o_1 A1 A2 B1 B2 VGND VNB VPB VPWR X
.ends

* Black-box entry subcircuit for sky130_fd_sc_hd__dfxtp_1 abstract view
.subckt sky130_fd_sc_hd__dfxtp_1 CLK D VGND VNB VPB VPWR Q
.ends

* Black-box entry subcircuit for sky130_fd_sc_hd__clkbuf_1 abstract view
.subckt sky130_fd_sc_hd__clkbuf_1 A VGND VNB VPB VPWR X
.ends

* Black-box entry subcircuit for sky130_fd_sc_hd__or2_1 abstract view
.subckt sky130_fd_sc_hd__or2_1 A B VGND VNB VPB VPWR X
.ends

* Black-box entry subcircuit for sky130_fd_sc_hd__o22a_1 abstract view
.subckt sky130_fd_sc_hd__o22a_1 A1 A2 B1 B2 VGND VNB VPB VPWR X
.ends

* Black-box entry subcircuit for sky130_fd_sc_hd__and2_1 abstract view
.subckt sky130_fd_sc_hd__and2_1 A B VGND VNB VPB VPWR X
.ends

* Black-box entry subcircuit for sky130_fd_sc_hd__dlxtn_1 abstract view
.subckt sky130_fd_sc_hd__dlxtn_1 D GATE_N VGND VNB VPB VPWR Q
.ends

* Black-box entry subcircuit for sky130_fd_sc_hd__decap_12 abstract view
.subckt sky130_fd_sc_hd__decap_12 VGND VNB VPB VPWR
.ends

* Black-box entry subcircuit for sky130_fd_sc_hd__o21a_1 abstract view
.subckt sky130_fd_sc_hd__o21a_1 A1 A2 B1 VGND VNB VPB VPWR X
.ends

* Black-box entry subcircuit for sky130_fd_sc_hd__inv_2 abstract view
.subckt sky130_fd_sc_hd__inv_2 A VGND VNB VPB VPWR Y
.ends

* Black-box entry subcircuit for sky130_fd_sc_hd__clkbuf_4 abstract view
.subckt sky130_fd_sc_hd__clkbuf_4 A VGND VNB VPB VPWR X
.ends

* Black-box entry subcircuit for sky130_fd_sc_hd__buf_4 abstract view
.subckt sky130_fd_sc_hd__buf_4 A VGND VNB VPB VPWR X
.ends

* Black-box entry subcircuit for sky130_fd_sc_hd__dlymetal6s2s_1 abstract view
.subckt sky130_fd_sc_hd__dlymetal6s2s_1 A VGND VNB VPB VPWR X
.ends

* Black-box entry subcircuit for sky130_fd_sc_hd__fill_2 abstract view
.subckt sky130_fd_sc_hd__fill_2 VGND VNB VPB VPWR
.ends

* Black-box entry subcircuit for sky130_fd_sc_hd__o2bb2a_1 abstract view
.subckt sky130_fd_sc_hd__o2bb2a_1 A1_N A2_N B1 B2 VGND VNB VPB VPWR X
.ends

* Black-box entry subcircuit for sky130_fd_sc_hd__buf_12 abstract view
.subckt sky130_fd_sc_hd__buf_12 A VGND VNB VPB VPWR X
.ends

* Black-box entry subcircuit for sky130_fd_sc_hd__buf_6 abstract view
.subckt sky130_fd_sc_hd__buf_6 A VGND VNB VPB VPWR X
.ends

* Black-box entry subcircuit for sky130_fd_sc_hd__a31oi_1 abstract view
.subckt sky130_fd_sc_hd__a31oi_1 A1 A2 A3 B1 VGND VNB VPB VPWR Y
.ends

* Black-box entry subcircuit for sky130_fd_sc_hd__and4_1 abstract view
.subckt sky130_fd_sc_hd__and4_1 A B C D VGND VNB VPB VPWR X
.ends

* Black-box entry subcircuit for sky130_fd_sc_hd__a211o_1 abstract view
.subckt sky130_fd_sc_hd__a211o_1 A1 A2 B1 C1 VGND VNB VPB VPWR X
.ends

* Black-box entry subcircuit for sky130_fd_sc_hd__clkbuf_16 abstract view
.subckt sky130_fd_sc_hd__clkbuf_16 A VGND VNB VPB VPWR X
.ends

* Black-box entry subcircuit for sky130_fd_sc_hd__nor3_1 abstract view
.subckt sky130_fd_sc_hd__nor3_1 A B C VGND VNB VPB VPWR Y
.ends

* Black-box entry subcircuit for sky130_fd_sc_hd__mux2_4 abstract view
.subckt sky130_fd_sc_hd__mux2_4 A0 A1 S VGND VNB VPB VPWR X
.ends

* Black-box entry subcircuit for sky130_fd_sc_hd__a22oi_1 abstract view
.subckt sky130_fd_sc_hd__a22oi_1 A1 A2 B1 B2 VGND VNB VPB VPWR Y
.ends

* Black-box entry subcircuit for sky130_fd_sc_hd__and2b_1 abstract view
.subckt sky130_fd_sc_hd__and2b_1 A_N B VGND VNB VPB VPWR X
.ends

* Black-box entry subcircuit for sky130_fd_sc_hd__or2_2 abstract view
.subckt sky130_fd_sc_hd__or2_2 A B VGND VNB VPB VPWR X
.ends

* Black-box entry subcircuit for sky130_fd_sc_hd__and3_1 abstract view
.subckt sky130_fd_sc_hd__and3_1 A B C VGND VNB VPB VPWR X
.ends

* Black-box entry subcircuit for sky130_fd_sc_hd__nor2_1 abstract view
.subckt sky130_fd_sc_hd__nor2_1 A B VGND VNB VPB VPWR Y
.ends

* Black-box entry subcircuit for sky130_fd_sc_hd__or4_2 abstract view
.subckt sky130_fd_sc_hd__or4_2 A B C D VGND VNB VPB VPWR X
.ends

* Black-box entry subcircuit for sky130_fd_sc_hd__conb_1 abstract view
.subckt sky130_fd_sc_hd__conb_1 VGND VNB VPB VPWR HI LO
.ends

* Black-box entry subcircuit for sky130_fd_sc_hd__nor2_4 abstract view
.subckt sky130_fd_sc_hd__nor2_4 A B VGND VNB VPB VPWR Y
.ends

* Black-box entry subcircuit for sky130_fd_sc_hd__dfxtp_2 abstract view
.subckt sky130_fd_sc_hd__dfxtp_2 CLK D VGND VNB VPB VPWR Q
.ends

* Black-box entry subcircuit for sky130_fd_sc_hd__a2111oi_1 abstract view
.subckt sky130_fd_sc_hd__a2111oi_1 A1 A2 B1 C1 D1 VGND VNB VPB VPWR Y
.ends

* Black-box entry subcircuit for sky130_fd_sc_hd__a21boi_4 abstract view
.subckt sky130_fd_sc_hd__a21boi_4 A1 A2 B1_N VGND VNB VPB VPWR Y
.ends

* Black-box entry subcircuit for sky130_fd_sc_hd__or3_2 abstract view
.subckt sky130_fd_sc_hd__or3_2 A B C VGND VNB VPB VPWR X
.ends

* Black-box entry subcircuit for sky130_fd_sc_hd__o21a_2 abstract view
.subckt sky130_fd_sc_hd__o21a_2 A1 A2 B1 VGND VNB VPB VPWR X
.ends

* Black-box entry subcircuit for sky130_fd_sc_hd__a21oi_2 abstract view
.subckt sky130_fd_sc_hd__a21oi_2 A1 A2 B1 VGND VNB VPB VPWR Y
.ends

* Black-box entry subcircuit for sky130_fd_sc_hd__a21oi_1 abstract view
.subckt sky130_fd_sc_hd__a21oi_1 A1 A2 B1 VGND VNB VPB VPWR Y
.ends

* Black-box entry subcircuit for sky130_fd_sc_hd__and3b_1 abstract view
.subckt sky130_fd_sc_hd__and3b_1 A_N B C VGND VNB VPB VPWR X
.ends

* Black-box entry subcircuit for sky130_fd_sc_hd__o22a_2 abstract view
.subckt sky130_fd_sc_hd__o22a_2 A1 A2 B1 B2 VGND VNB VPB VPWR X
.ends

* Black-box entry subcircuit for sky130_fd_sc_hd__clkinv_4 abstract view
.subckt sky130_fd_sc_hd__clkinv_4 A VGND VNB VPB VPWR Y
.ends

* Black-box entry subcircuit for sky130_fd_sc_hd__a21oi_4 abstract view
.subckt sky130_fd_sc_hd__a21oi_4 A1 A2 B1 VGND VNB VPB VPWR Y
.ends

* Black-box entry subcircuit for sky130_fd_sc_hd__or4b_2 abstract view
.subckt sky130_fd_sc_hd__or4b_2 A B C D_N VGND VNB VPB VPWR X
.ends

* Black-box entry subcircuit for sky130_fd_sc_hd__or4_4 abstract view
.subckt sky130_fd_sc_hd__or4_4 A B C D VGND VNB VPB VPWR X
.ends

.subckt sram_wrapper addr0_to_sram[0] addr0_to_sram[10] addr0_to_sram[11] addr0_to_sram[12]
+ addr0_to_sram[13] addr0_to_sram[14] addr0_to_sram[15] addr0_to_sram[16] addr0_to_sram[17]
+ addr0_to_sram[18] addr0_to_sram[19] addr0_to_sram[1] addr0_to_sram[2] addr0_to_sram[3]
+ addr0_to_sram[4] addr0_to_sram[5] addr0_to_sram[6] addr0_to_sram[7] addr0_to_sram[8]
+ addr0_to_sram[9] addr_in[0] addr_in[10] addr_in[11] addr_in[12] addr_in[13] addr_in[14]
+ addr_in[15] addr_in[16] addr_in[17] addr_in[18] addr_in[19] addr_in[1] addr_in[2]
+ addr_in[3] addr_in[4] addr_in[5] addr_in[6] addr_in[7] addr_in[8] addr_in[9] addr_to_core_mem[0]
+ addr_to_core_mem[10] addr_to_core_mem[11] addr_to_core_mem[12] addr_to_core_mem[13]
+ addr_to_core_mem[14] addr_to_core_mem[15] addr_to_core_mem[16] addr_to_core_mem[17]
+ addr_to_core_mem[18] addr_to_core_mem[19] addr_to_core_mem[1] addr_to_core_mem[2]
+ addr_to_core_mem[3] addr_to_core_mem[4] addr_to_core_mem[5] addr_to_core_mem[6]
+ addr_to_core_mem[7] addr_to_core_mem[8] addr_to_core_mem[9] clk csb0_to_sram data_to_core_mem[0]
+ data_to_core_mem[10] data_to_core_mem[11] data_to_core_mem[12] data_to_core_mem[13]
+ data_to_core_mem[14] data_to_core_mem[15] data_to_core_mem[16] data_to_core_mem[17]
+ data_to_core_mem[18] data_to_core_mem[19] data_to_core_mem[1] data_to_core_mem[20]
+ data_to_core_mem[21] data_to_core_mem[22] data_to_core_mem[23] data_to_core_mem[24]
+ data_to_core_mem[25] data_to_core_mem[26] data_to_core_mem[27] data_to_core_mem[28]
+ data_to_core_mem[29] data_to_core_mem[2] data_to_core_mem[30] data_to_core_mem[31]
+ data_to_core_mem[3] data_to_core_mem[4] data_to_core_mem[5] data_to_core_mem[6]
+ data_to_core_mem[7] data_to_core_mem[8] data_to_core_mem[9] din0_to_sram[0] din0_to_sram[10]
+ din0_to_sram[11] din0_to_sram[12] din0_to_sram[13] din0_to_sram[14] din0_to_sram[15]
+ din0_to_sram[16] din0_to_sram[17] din0_to_sram[18] din0_to_sram[19] din0_to_sram[1]
+ din0_to_sram[20] din0_to_sram[21] din0_to_sram[22] din0_to_sram[23] din0_to_sram[24]
+ din0_to_sram[25] din0_to_sram[26] din0_to_sram[27] din0_to_sram[28] din0_to_sram[29]
+ din0_to_sram[2] din0_to_sram[30] din0_to_sram[31] din0_to_sram[3] din0_to_sram[4]
+ din0_to_sram[5] din0_to_sram[6] din0_to_sram[7] din0_to_sram[8] din0_to_sram[9]
+ dout0_to_sram[0] dout0_to_sram[10] dout0_to_sram[11] dout0_to_sram[12] dout0_to_sram[13]
+ dout0_to_sram[14] dout0_to_sram[15] dout0_to_sram[16] dout0_to_sram[17] dout0_to_sram[18]
+ dout0_to_sram[19] dout0_to_sram[1] dout0_to_sram[20] dout0_to_sram[21] dout0_to_sram[22]
+ dout0_to_sram[23] dout0_to_sram[24] dout0_to_sram[25] dout0_to_sram[26] dout0_to_sram[27]
+ dout0_to_sram[28] dout0_to_sram[29] dout0_to_sram[2] dout0_to_sram[30] dout0_to_sram[31]
+ dout0_to_sram[3] dout0_to_sram[4] dout0_to_sram[5] dout0_to_sram[6] dout0_to_sram[7]
+ dout0_to_sram[8] dout0_to_sram[9] is_loading_memory_into_core rd_data_out[0] rd_data_out[100]
+ rd_data_out[101] rd_data_out[102] rd_data_out[103] rd_data_out[104] rd_data_out[105]
+ rd_data_out[106] rd_data_out[107] rd_data_out[108] rd_data_out[109] rd_data_out[10]
+ rd_data_out[110] rd_data_out[111] rd_data_out[112] rd_data_out[113] rd_data_out[114]
+ rd_data_out[115] rd_data_out[116] rd_data_out[117] rd_data_out[118] rd_data_out[119]
+ rd_data_out[11] rd_data_out[120] rd_data_out[121] rd_data_out[122] rd_data_out[123]
+ rd_data_out[124] rd_data_out[125] rd_data_out[126] rd_data_out[127] rd_data_out[12]
+ rd_data_out[13] rd_data_out[14] rd_data_out[15] rd_data_out[16] rd_data_out[17]
+ rd_data_out[18] rd_data_out[19] rd_data_out[1] rd_data_out[20] rd_data_out[21] rd_data_out[22]
+ rd_data_out[23] rd_data_out[24] rd_data_out[25] rd_data_out[26] rd_data_out[27]
+ rd_data_out[28] rd_data_out[29] rd_data_out[2] rd_data_out[30] rd_data_out[31] rd_data_out[32]
+ rd_data_out[33] rd_data_out[34] rd_data_out[35] rd_data_out[36] rd_data_out[37]
+ rd_data_out[38] rd_data_out[39] rd_data_out[3] rd_data_out[40] rd_data_out[41] rd_data_out[42]
+ rd_data_out[43] rd_data_out[44] rd_data_out[45] rd_data_out[46] rd_data_out[47]
+ rd_data_out[48] rd_data_out[49] rd_data_out[4] rd_data_out[50] rd_data_out[51] rd_data_out[52]
+ rd_data_out[53] rd_data_out[54] rd_data_out[55] rd_data_out[56] rd_data_out[57]
+ rd_data_out[58] rd_data_out[59] rd_data_out[5] rd_data_out[60] rd_data_out[61] rd_data_out[62]
+ rd_data_out[63] rd_data_out[64] rd_data_out[65] rd_data_out[66] rd_data_out[67]
+ rd_data_out[68] rd_data_out[69] rd_data_out[6] rd_data_out[70] rd_data_out[71] rd_data_out[72]
+ rd_data_out[73] rd_data_out[74] rd_data_out[75] rd_data_out[76] rd_data_out[77]
+ rd_data_out[78] rd_data_out[79] rd_data_out[7] rd_data_out[80] rd_data_out[81] rd_data_out[82]
+ rd_data_out[83] rd_data_out[84] rd_data_out[85] rd_data_out[86] rd_data_out[87]
+ rd_data_out[88] rd_data_out[89] rd_data_out[8] rd_data_out[90] rd_data_out[91] rd_data_out[92]
+ rd_data_out[93] rd_data_out[94] rd_data_out[95] rd_data_out[96] rd_data_out[97]
+ rd_data_out[98] rd_data_out[99] rd_data_out[9] ready requested reset reset_mem_req
+ spare_wen0_to_sram vccd1 vssd1 we we_to_sram wr_data[0] wr_data[100] wr_data[101]
+ wr_data[102] wr_data[103] wr_data[104] wr_data[105] wr_data[106] wr_data[107] wr_data[108]
+ wr_data[109] wr_data[10] wr_data[110] wr_data[111] wr_data[112] wr_data[113] wr_data[114]
+ wr_data[115] wr_data[116] wr_data[117] wr_data[118] wr_data[119] wr_data[11] wr_data[120]
+ wr_data[121] wr_data[122] wr_data[123] wr_data[124] wr_data[125] wr_data[126] wr_data[127]
+ wr_data[12] wr_data[13] wr_data[14] wr_data[15] wr_data[16] wr_data[17] wr_data[18]
+ wr_data[19] wr_data[1] wr_data[20] wr_data[21] wr_data[22] wr_data[23] wr_data[24]
+ wr_data[25] wr_data[26] wr_data[27] wr_data[28] wr_data[29] wr_data[2] wr_data[30]
+ wr_data[31] wr_data[32] wr_data[33] wr_data[34] wr_data[35] wr_data[36] wr_data[37]
+ wr_data[38] wr_data[39] wr_data[3] wr_data[40] wr_data[41] wr_data[42] wr_data[43]
+ wr_data[44] wr_data[45] wr_data[46] wr_data[47] wr_data[48] wr_data[49] wr_data[4]
+ wr_data[50] wr_data[51] wr_data[52] wr_data[53] wr_data[54] wr_data[55] wr_data[56]
+ wr_data[57] wr_data[58] wr_data[59] wr_data[5] wr_data[60] wr_data[61] wr_data[62]
+ wr_data[63] wr_data[64] wr_data[65] wr_data[66] wr_data[67] wr_data[68] wr_data[69]
+ wr_data[6] wr_data[70] wr_data[71] wr_data[72] wr_data[73] wr_data[74] wr_data[75]
+ wr_data[76] wr_data[77] wr_data[78] wr_data[79] wr_data[7] wr_data[80] wr_data[81]
+ wr_data[82] wr_data[83] wr_data[84] wr_data[85] wr_data[86] wr_data[87] wr_data[88]
+ wr_data[89] wr_data[8] wr_data[90] wr_data[91] wr_data[92] wr_data[93] wr_data[94]
+ wr_data[95] wr_data[96] wr_data[97] wr_data[98] wr_data[99] wr_data[9]
XTAP_177 vssd1 vccd1 sky130_fd_sc_hd__tapvpwrvgnd_1
XTAP_188 vssd1 vccd1 sky130_fd_sc_hd__tapvpwrvgnd_1
XTAP_199 vssd1 vccd1 sky130_fd_sc_hd__tapvpwrvgnd_1
XFILLER_52_18 vssd1 vssd1 vccd1 vccd1 sky130_fd_sc_hd__decap_4
XANTENNA__0717__B1 input80/X vssd1 vssd1 vccd1 vccd1 sky130_fd_sc_hd__diode_2
XANTENNA__0849__S _0857_/S vssd1 vssd1 vccd1 vccd1 sky130_fd_sc_hd__diode_2
XANTENNA_input127_A wr_data[115] vssd1 vssd1 vccd1 vccd1 sky130_fd_sc_hd__diode_2
XFILLER_45_225 vssd1 vssd1 vccd1 vccd1 sky130_fd_sc_hd__decap_4
XANTENNA_input92_A dout0_to_sram[27] vssd1 vssd1 vccd1 vccd1 sky130_fd_sc_hd__diode_2
XANTENNA__0613__A _0857_/S vssd1 vssd1 vccd1 vccd1 sky130_fd_sc_hd__diode_2
XFILLER_13_177 vssd1 vssd1 vccd1 vccd1 sky130_fd_sc_hd__decap_4
XFILLER_5_332 vssd1 vssd1 vccd1 vccd1 sky130_fd_sc_hd__decap_4
XFILLER_3_67 vssd1 vssd1 vccd1 vccd1 sky130_fd_sc_hd__decap_4
XFILLER_51_239 vssd1 vssd1 vccd1 vccd1 sky130_fd_sc_hd__decap_4
XFILLER_51_228 vssd1 vssd1 vccd1 vccd1 sky130_fd_sc_hd__decap_8
X_0985_ _0638_/X _0984_/X _0985_/S vssd1 vssd1 vccd1 vccd1 _1153_/D sky130_fd_sc_hd__mux2_1
Xoutput412 _1082_/Q vssd1 vssd1 vccd1 vccd1 rd_data_out[95] sky130_fd_sc_hd__buf_2
Xoutput401 _1072_/Q vssd1 vssd1 vccd1 vccd1 rd_data_out[85] sky130_fd_sc_hd__buf_2
XFILLER_27_258 vssd1 vssd1 vccd1 vccd1 sky130_fd_sc_hd__decap_4
XFILLER_27_203 vssd1 vssd1 vccd1 vccd1 sky130_fd_sc_hd__decap_8
XFILLER_50_283 vssd1 vssd1 vccd1 vccd1 sky130_fd_sc_hd__decap_4
XANTENNA__0560__D_N input10/X vssd1 vssd1 vccd1 vccd1 sky130_fd_sc_hd__diode_2
XANTENNA__0650__A2 _0642_/X vssd1 vssd1 vccd1 vccd1 sky130_fd_sc_hd__diode_2
XFILLER_12_21 vssd1 vssd1 vccd1 vccd1 sky130_fd_sc_hd__decap_6
XFILLER_12_54 vssd1 vssd1 vccd1 vccd1 sky130_fd_sc_hd__decap_4
XANTENNA__0938__A0 _0938_/A0 vssd1 vssd1 vccd1 vccd1 sky130_fd_sc_hd__diode_2
XFILLER_2_357 vssd1 vssd1 vccd1 vccd1 sky130_fd_sc_hd__decap_6
XFILLER_12_87 vssd1 vssd1 vccd1 vccd1 sky130_fd_sc_hd__decap_4
XFILLER_18_258 vssd1 vssd1 vccd1 vccd1 sky130_fd_sc_hd__decap_4
XFILLER_18_236 vssd1 vssd1 vccd1 vccd1 sky130_fd_sc_hd__decap_4
XFILLER_53_94 vssd1 vssd1 vccd1 vccd1 sky130_fd_sc_hd__fill_1
XFILLER_53_61 vssd1 vssd1 vccd1 vccd1 sky130_fd_sc_hd__decap_4
XFILLER_26_291 vssd1 vssd1 vccd1 vccd1 sky130_fd_sc_hd__decap_4
X_0770_ _0777_/A vssd1 vssd1 vccd1 vccd1 _0770_/X sky130_fd_sc_hd__buf_2
XFILLER_5_151 vssd1 vssd1 vccd1 vccd1 sky130_fd_sc_hd__decap_4
XFILLER_5_173 vssd1 vssd1 vccd1 vccd1 sky130_fd_sc_hd__decap_4
XFILLER_24_217 vssd1 vssd1 vccd1 vccd1 sky130_fd_sc_hd__decap_3
XANTENNA__1143__GATE_N _0834_/Y vssd1 vssd1 vccd1 vccd1 sky130_fd_sc_hd__diode_2
XANTENNA__0952__S _0984_/S vssd1 vssd1 vccd1 vccd1 sky130_fd_sc_hd__diode_2
X_0968_ _0967_/X _0968_/A1 _0984_/S vssd1 vssd1 vccd1 vccd1 _0968_/X sky130_fd_sc_hd__mux2_1
Xclkbuf_4_12_0_clk clkbuf_3_6_0_clk/X vssd1 vssd1 vccd1 vccd1 _1083_/CLK sky130_fd_sc_hd__clkbuf_2
XFILLER_32_283 vssd1 vssd1 vccd1 vccd1 sky130_fd_sc_hd__fill_1
Xoutput264 _1137_/Q vssd1 vssd1 vccd1 vccd1 din0_to_sram[15] sky130_fd_sc_hd__buf_2
Xoutput253 _0843_/X vssd1 vssd1 vccd1 vccd1 addr0_to_sram[5] sky130_fd_sc_hd__buf_2
Xoutput275 _1147_/Q vssd1 vssd1 vccd1 vccd1 din0_to_sram[25] sky130_fd_sc_hd__buf_2
Xoutput286 _1128_/Q vssd1 vssd1 vccd1 vccd1 din0_to_sram[6] sky130_fd_sc_hd__buf_2
X_0899_ _0898_/X _0899_/A1 _0983_/S vssd1 vssd1 vccd1 vccd1 _0899_/X sky130_fd_sc_hd__mux2_2
Xoutput242 _0851_/X vssd1 vssd1 vccd1 vccd1 addr0_to_sram[13] sky130_fd_sc_hd__buf_2
Xoutput297 _1093_/Q vssd1 vssd1 vccd1 vccd1 rd_data_out[106] sky130_fd_sc_hd__buf_2
XANTENNA__0862__S _0982_/S vssd1 vssd1 vccd1 vccd1 sky130_fd_sc_hd__diode_2
XFILLER_15_206 vssd1 vssd1 vccd1 vccd1 sky130_fd_sc_hd__fill_1
XFILLER_23_86 vssd1 vssd1 vccd1 vccd1 sky130_fd_sc_hd__decap_4
XFILLER_23_42 vssd1 vssd1 vccd1 vccd1 sky130_fd_sc_hd__decap_8
XANTENNA_input194_A wr_data[60] vssd1 vssd1 vccd1 vccd1 sky130_fd_sc_hd__diode_2
XANTENNA_input55_A data_to_core_mem[22] vssd1 vssd1 vccd1 vccd1 sky130_fd_sc_hd__diode_2
XFILLER_2_176 vssd1 vssd1 vccd1 vccd1 sky130_fd_sc_hd__decap_4
XFILLER_48_72 vssd1 vssd1 vccd1 vccd1 sky130_fd_sc_hd__decap_4
XANTENNA_output309_A _1104_/Q vssd1 vssd1 vccd1 vccd1 sky130_fd_sc_hd__diode_2
XFILLER_0_13 vssd1 vssd1 vccd1 vccd1 sky130_fd_sc_hd__decap_6
XFILLER_0_24 vssd1 vssd1 vccd1 vccd1 sky130_fd_sc_hd__decap_4
X_0822_ _1105_/Q _0818_/X input87/X _0819_/X vssd1 vssd1 vccd1 vccd1 _1105_/D sky130_fd_sc_hd__a22o_1
XFILLER_9_33 vssd1 vssd1 vccd1 vccd1 sky130_fd_sc_hd__decap_4
XFILLER_9_55 vssd1 vssd1 vccd1 vccd1 sky130_fd_sc_hd__fill_1
XFILLER_9_88 vssd1 vssd1 vccd1 vccd1 sky130_fd_sc_hd__decap_6
X_0753_ _1058_/Q _0749_/X _0801_/B1 _0750_/X vssd1 vssd1 vccd1 vccd1 _1058_/D sky130_fd_sc_hd__a22o_1
X_0684_ _1015_/Q _0679_/X input93/X _0680_/X vssd1 vssd1 vccd1 vccd1 _1015_/D sky130_fd_sc_hd__a22o_1
Xclkbuf_3_1_0_clk clkbuf_0_clk/X vssd1 vssd1 vccd1 vccd1 clkbuf_4_3_0_clk/A sky130_fd_sc_hd__clkbuf_2
XFILLER_56_128 vssd1 vssd1 vccd1 vccd1 sky130_fd_sc_hd__decap_4
XFILLER_56_106 vssd1 vssd1 vccd1 vccd1 sky130_fd_sc_hd__decap_4
XANTENNA__0947__S _0983_/S vssd1 vssd1 vccd1 vccd1 sky130_fd_sc_hd__diode_2
X_1098_ _1100_/CLK _1098_/D vssd1 vssd1 vccd1 vccd1 _1098_/Q sky130_fd_sc_hd__dfxtp_1
XFILLER_37_353 vssd1 vssd1 vccd1 vccd1 sky130_fd_sc_hd__decap_4
XFILLER_20_253 vssd1 vssd1 vccd1 vccd1 sky130_fd_sc_hd__decap_4
XANTENNA__0857__S _0857_/S vssd1 vssd1 vccd1 vccd1 sky130_fd_sc_hd__diode_2
XFILLER_28_320 vssd1 vssd1 vccd1 vccd1 sky130_fd_sc_hd__decap_4
XFILLER_18_97 vssd1 vssd1 vccd1 vccd1 sky130_fd_sc_hd__decap_4
XFILLER_18_31 vssd1 vssd1 vccd1 vccd1 sky130_fd_sc_hd__decap_6
XFILLER_43_345 vssd1 vssd1 vccd1 vccd1 sky130_fd_sc_hd__decap_4
XFILLER_34_85 vssd1 vssd1 vccd1 vccd1 sky130_fd_sc_hd__decap_4
XANTENNA_input207_A wr_data[72] vssd1 vssd1 vccd1 vccd1 sky130_fd_sc_hd__diode_2
XFILLER_7_213 vssd1 vssd1 vccd1 vccd1 sky130_fd_sc_hd__decap_4
XFILLER_11_264 vssd1 vssd1 vccd1 vccd1 sky130_fd_sc_hd__decap_4
XFILLER_50_40 vssd1 vssd1 vccd1 vccd1 sky130_fd_sc_hd__decap_4
XANTENNA__0621__A _0857_/S vssd1 vssd1 vccd1 vccd1 sky130_fd_sc_hd__diode_2
XFILLER_7_268 vssd1 vssd1 vccd1 vccd1 sky130_fd_sc_hd__decap_6
XFILLER_38_117 vssd1 vssd1 vccd1 vccd1 sky130_fd_sc_hd__decap_4
XFILLER_22_7 vssd1 vssd1 vccd1 vccd1 sky130_fd_sc_hd__decap_4
XFILLER_19_320 vssd1 vssd1 vccd1 vccd1 sky130_fd_sc_hd__decap_4
XFILLER_34_345 vssd1 vssd1 vccd1 vccd1 sky130_fd_sc_hd__decap_4
XFILLER_34_334 vssd1 vssd1 vccd1 vccd1 sky130_fd_sc_hd__decap_4
X_1021_ _1120_/CLK _1021_/D vssd1 vssd1 vccd1 vccd1 _1021_/Q sky130_fd_sc_hd__dfxtp_1
X_0805_ _0805_/A vssd1 vssd1 vccd1 vccd1 _0805_/X sky130_fd_sc_hd__buf_2
X_0667_ _1002_/Q _0665_/X input79/X _0666_/X vssd1 vssd1 vccd1 vccd1 _1002_/D sky130_fd_sc_hd__a22o_1
X_0736_ _1050_/Q _0707_/A input97/X _0708_/A vssd1 vssd1 vccd1 vccd1 _1050_/D sky130_fd_sc_hd__a22o_1
XANTENNA__0531__A input2/X vssd1 vssd1 vccd1 vccd1 sky130_fd_sc_hd__diode_2
X_0598_ _0598_/A vssd1 vssd1 vccd1 vccd1 _0598_/X sky130_fd_sc_hd__clkbuf_1
XFILLER_52_186 vssd1 vssd1 vccd1 vccd1 sky130_fd_sc_hd__decap_4
XFILLER_40_337 vssd1 vssd1 vccd1 vccd1 sky130_fd_sc_hd__decap_8
XFILLER_20_21 vssd1 vssd1 vccd1 vccd1 sky130_fd_sc_hd__decap_6
XANTENNA_input157_A wr_data[27] vssd1 vssd1 vccd1 vccd1 sky130_fd_sc_hd__diode_2
XFILLER_43_164 vssd1 vssd1 vccd1 vccd1 sky130_fd_sc_hd__decap_4
XFILLER_43_153 vssd1 vssd1 vccd1 vccd1 sky130_fd_sc_hd__decap_6
XFILLER_43_142 vssd1 vssd1 vccd1 vccd1 sky130_fd_sc_hd__decap_4
XANTENNA_input18_A addr_in[7] vssd1 vssd1 vccd1 vccd1 sky130_fd_sc_hd__diode_2
XANTENNA__0817__A2 _0811_/X vssd1 vssd1 vccd1 vccd1 sky130_fd_sc_hd__diode_2
XFILLER_16_334 vssd1 vssd1 vccd1 vccd1 sky130_fd_sc_hd__fill_1
XFILLER_31_348 vssd1 vssd1 vccd1 vccd1 sky130_fd_sc_hd__decap_8
X_0521_ _0521_/A _0521_/B vssd1 vssd1 vccd1 vccd1 _0522_/C sky130_fd_sc_hd__or2_1
XTAP_348 vssd1 vccd1 sky130_fd_sc_hd__tapvpwrvgnd_1
XTAP_337 vssd1 vccd1 sky130_fd_sc_hd__tapvpwrvgnd_1
XTAP_326 vssd1 vccd1 sky130_fd_sc_hd__tapvpwrvgnd_1
XTAP_315 vssd1 vccd1 sky130_fd_sc_hd__tapvpwrvgnd_1
XANTENNA__0753__B2 _0750_/X vssd1 vssd1 vccd1 vccd1 sky130_fd_sc_hd__diode_2
XTAP_304 vssd1 vccd1 sky130_fd_sc_hd__tapvpwrvgnd_1
XFILLER_6_67 vssd1 vssd1 vccd1 vccd1 sky130_fd_sc_hd__decap_4
XTAP_359 vssd1 vccd1 sky130_fd_sc_hd__tapvpwrvgnd_1
X_1004_ _1107_/CLK _1004_/D vssd1 vssd1 vccd1 vccd1 _1004_/Q sky130_fd_sc_hd__dfxtp_1
XANTENNA__0960__S _0984_/S vssd1 vssd1 vccd1 vccd1 sky130_fd_sc_hd__diode_2
XFILLER_22_315 vssd1 vssd1 vccd1 vccd1 sky130_fd_sc_hd__decap_4
XANTENNA__0808__A2 _0804_/X vssd1 vssd1 vccd1 vccd1 sky130_fd_sc_hd__diode_2
XFILLER_57_223 vssd1 vssd1 vccd1 vccd1 sky130_fd_sc_hd__fill_1
XFILLER_57_201 vssd1 vssd1 vccd1 vccd1 sky130_fd_sc_hd__decap_6
X_0719_ _1037_/Q _0714_/X input82/X _0715_/X vssd1 vssd1 vccd1 vccd1 _1037_/D sky130_fd_sc_hd__a22o_1
XANTENNA__0744__A1 _1051_/Q vssd1 vssd1 vccd1 vccd1 sky130_fd_sc_hd__diode_2
XFILLER_40_101 vssd1 vssd1 vccd1 vccd1 sky130_fd_sc_hd__decap_4
XFILLER_25_164 vssd1 vssd1 vccd1 vccd1 sky130_fd_sc_hd__decap_4
XFILLER_13_315 vssd1 vssd1 vccd1 vccd1 sky130_fd_sc_hd__decap_8
XANTENNA__0870__S _0982_/S vssd1 vssd1 vccd1 vccd1 sky130_fd_sc_hd__diode_2
XFILLER_31_53 vssd1 vssd1 vccd1 vccd1 sky130_fd_sc_hd__decap_3
XFILLER_13_326 vssd1 vssd1 vccd1 vccd1 sky130_fd_sc_hd__decap_4
XFILLER_15_65 vssd1 vssd1 vccd1 vccd1 sky130_fd_sc_hd__decap_4
XANTENNA__0735__B2 _0708_/A vssd1 vssd1 vccd1 vccd1 sky130_fd_sc_hd__diode_2
XFILLER_31_97 vssd1 vssd1 vccd1 vccd1 sky130_fd_sc_hd__decap_4
XFILLER_56_83 vssd1 vssd1 vccd1 vccd1 sky130_fd_sc_hd__fill_1
Xinput120 wr_data[109] vssd1 vssd1 vccd1 vccd1 _0910_/A0 sky130_fd_sc_hd__clkbuf_1
Xinput131 wr_data[119] vssd1 vssd1 vccd1 vccd1 _0950_/A0 sky130_fd_sc_hd__clkbuf_1
Xinput186 wr_data[53] vssd1 vssd1 vccd1 vccd1 _0943_/A1 sky130_fd_sc_hd__clkbuf_1
XFILLER_48_289 vssd1 vssd1 vccd1 vccd1 sky130_fd_sc_hd__decap_4
XFILLER_48_256 vssd1 vssd1 vccd1 vccd1 sky130_fd_sc_hd__decap_4
XFILLER_48_245 vssd1 vssd1 vccd1 vccd1 sky130_fd_sc_hd__decap_6
Xinput197 wr_data[63] vssd1 vssd1 vccd1 vccd1 _0983_/A1 sky130_fd_sc_hd__clkbuf_1
Xinput153 wr_data[23] vssd1 vssd1 vccd1 vccd1 _0952_/A1 sky130_fd_sc_hd__clkbuf_2
XFILLER_0_263 vssd1 vssd1 vccd1 vccd1 sky130_fd_sc_hd__decap_4
Xinput175 wr_data[43] vssd1 vssd1 vccd1 vccd1 _0903_/A1 sky130_fd_sc_hd__clkbuf_1
Xinput142 wr_data[13] vssd1 vssd1 vccd1 vccd1 _0912_/A1 sky130_fd_sc_hd__clkbuf_1
Xinput164 wr_data[33] vssd1 vssd1 vccd1 vccd1 _0863_/A1 sky130_fd_sc_hd__clkbuf_2
XANTENNA__0671__B1 input83/X vssd1 vssd1 vccd1 vccd1 sky130_fd_sc_hd__diode_2
XFILLER_16_120 vssd1 vssd1 vccd1 vccd1 sky130_fd_sc_hd__decap_8
XFILLER_16_186 vssd1 vssd1 vccd1 vccd1 sky130_fd_sc_hd__decap_4
XFILLER_16_197 vssd1 vssd1 vccd1 vccd1 sky130_fd_sc_hd__decap_4
XANTENNA__0974__A1 _0974_/A1 vssd1 vssd1 vccd1 vccd1 sky130_fd_sc_hd__diode_2
XFILLER_8_341 vssd1 vssd1 vccd1 vccd1 sky130_fd_sc_hd__decap_4
XFILLER_8_363 vssd1 vssd1 vccd1 vccd1 sky130_fd_sc_hd__fill_1
X_0504_ _0507_/A _0507_/C _0501_/A _0503_/A vssd1 vssd1 vccd1 vccd1 _0504_/X sky130_fd_sc_hd__o22a_1
XANTENNA__0726__B2 _0722_/X vssd1 vssd1 vccd1 vccd1 sky130_fd_sc_hd__diode_2
XTAP_145 vssd1 vccd1 sky130_fd_sc_hd__tapvpwrvgnd_1
XTAP_134 vssd1 vccd1 sky130_fd_sc_hd__tapvpwrvgnd_1
XTAP_123 vssd1 vccd1 sky130_fd_sc_hd__tapvpwrvgnd_1
XTAP_156 vssd1 vccd1 sky130_fd_sc_hd__tapvpwrvgnd_1
XTAP_167 vssd1 vccd1 sky130_fd_sc_hd__tapvpwrvgnd_1
XTAP_178 vssd1 vccd1 sky130_fd_sc_hd__tapvpwrvgnd_1
XTAP_189 vssd1 vccd1 sky130_fd_sc_hd__tapvpwrvgnd_1
XFILLER_54_248 vssd1 vssd1 vccd1 vccd1 sky130_fd_sc_hd__decap_4
XFILLER_54_215 vssd1 vssd1 vccd1 vccd1 sky130_fd_sc_hd__fill_1
XANTENNA__0955__S _0983_/S vssd1 vssd1 vccd1 vccd1 sky130_fd_sc_hd__diode_2
XANTENNA__0662__B1 input76/X vssd1 vssd1 vccd1 vccd1 sky130_fd_sc_hd__diode_2
XANTENNA__0717__A1 _1035_/Q vssd1 vssd1 vccd1 vccd1 sky130_fd_sc_hd__diode_2
XANTENNA__0717__B2 _0715_/X vssd1 vssd1 vccd1 vccd1 sky130_fd_sc_hd__diode_2
XANTENNA__0865__S _0985_/S vssd1 vssd1 vccd1 vccd1 sky130_fd_sc_hd__diode_2
XANTENNA__1138__GATE_N repeater420/X vssd1 vssd1 vccd1 vccd1 sky130_fd_sc_hd__diode_2
XFILLER_53_281 vssd1 vssd1 vccd1 vccd1 sky130_fd_sc_hd__decap_4
XFILLER_26_64 vssd1 vssd1 vccd1 vccd1 sky130_fd_sc_hd__decap_4
XFILLER_26_42 vssd1 vssd1 vccd1 vccd1 sky130_fd_sc_hd__decap_4
XFILLER_26_20 vssd1 vssd1 vccd1 vccd1 sky130_fd_sc_hd__decap_8
XANTENNA__0653__B1 _0799_/B1 vssd1 vssd1 vccd1 vccd1 sky130_fd_sc_hd__diode_2
XFILLER_13_167 vssd1 vssd1 vccd1 vccd1 sky130_fd_sc_hd__fill_1
XFILLER_42_74 vssd1 vssd1 vccd1 vccd1 sky130_fd_sc_hd__decap_4
XFILLER_5_355 vssd1 vssd1 vccd1 vccd1 sky130_fd_sc_hd__decap_8
XANTENNA_input85_A dout0_to_sram[20] vssd1 vssd1 vccd1 vccd1 sky130_fd_sc_hd__diode_2
XANTENNA_output339_A _1016_/Q vssd1 vssd1 vccd1 vccd1 sky130_fd_sc_hd__diode_2
XANTENNA_output241_A _0850_/X vssd1 vssd1 vccd1 vccd1 sky130_fd_sc_hd__diode_2
XFILLER_36_248 vssd1 vssd1 vccd1 vccd1 sky130_fd_sc_hd__decap_4
X_0984_ _0983_/X _0984_/A1 _0984_/S vssd1 vssd1 vccd1 vccd1 _0984_/X sky130_fd_sc_hd__mux2_1
Xoutput402 _1073_/Q vssd1 vssd1 vccd1 vccd1 rd_data_out[86] sky130_fd_sc_hd__buf_2
XFILLER_8_160 vssd1 vssd1 vccd1 vccd1 sky130_fd_sc_hd__decap_4
XFILLER_8_182 vssd1 vssd1 vccd1 vccd1 sky130_fd_sc_hd__fill_1
Xoutput413 _1083_/Q vssd1 vssd1 vccd1 vccd1 rd_data_out[96] sky130_fd_sc_hd__buf_2
XFILLER_12_66 vssd1 vssd1 vccd1 vccd1 sky130_fd_sc_hd__decap_4
XFILLER_37_96 vssd1 vssd1 vccd1 vccd1 sky130_fd_sc_hd__decap_4
XANTENNA_input237_A wr_data[9] vssd1 vssd1 vccd1 vccd1 sky130_fd_sc_hd__diode_2
XFILLER_18_248 vssd1 vssd1 vccd1 vccd1 sky130_fd_sc_hd__decap_4
XANTENNA__0874__A0 _0874_/A0 vssd1 vssd1 vccd1 vccd1 sky130_fd_sc_hd__diode_2
XFILLER_41_273 vssd1 vssd1 vccd1 vccd1 sky130_fd_sc_hd__decap_6
X_0967_ _0966_/X _0967_/A1 _0983_/S vssd1 vssd1 vccd1 vccd1 _0967_/X sky130_fd_sc_hd__mux2_1
Xoutput276 _1148_/Q vssd1 vssd1 vccd1 vccd1 din0_to_sram[26] sky130_fd_sc_hd__buf_2
Xoutput254 _0844_/X vssd1 vssd1 vccd1 vccd1 addr0_to_sram[6] sky130_fd_sc_hd__buf_2
Xoutput265 _1138_/Q vssd1 vssd1 vccd1 vccd1 din0_to_sram[16] sky130_fd_sc_hd__buf_2
X_0898_ _0898_/A0 _0898_/A1 _0982_/S vssd1 vssd1 vccd1 vccd1 _0898_/X sky130_fd_sc_hd__mux2_1
Xoutput287 _1129_/Q vssd1 vssd1 vccd1 vccd1 din0_to_sram[7] sky130_fd_sc_hd__buf_2
Xoutput243 _0852_/X vssd1 vssd1 vccd1 vccd1 addr0_to_sram[14] sky130_fd_sc_hd__buf_2
Xoutput298 _1094_/Q vssd1 vssd1 vccd1 vccd1 rd_data_out[107] sky130_fd_sc_hd__buf_2
XFILLER_55_332 vssd1 vssd1 vccd1 vccd1 sky130_fd_sc_hd__decap_4
XFILLER_23_240 vssd1 vssd1 vccd1 vccd1 sky130_fd_sc_hd__decap_4
XANTENNA_input187_A wr_data[54] vssd1 vssd1 vccd1 vccd1 sky130_fd_sc_hd__diode_2
XFILLER_23_98 vssd1 vssd1 vccd1 vccd1 sky130_fd_sc_hd__decap_4
XFILLER_23_65 vssd1 vssd1 vccd1 vccd1 sky130_fd_sc_hd__decap_6
XFILLER_2_111 vssd1 vssd1 vccd1 vccd1 sky130_fd_sc_hd__decap_4
XFILLER_2_133 vssd1 vssd1 vccd1 vccd1 sky130_fd_sc_hd__decap_6
XANTENNA_input48_A data_to_core_mem[16] vssd1 vssd1 vccd1 vccd1 sky130_fd_sc_hd__diode_2
XANTENNA__0619__A _0857_/S vssd1 vssd1 vccd1 vccd1 sky130_fd_sc_hd__diode_2
XFILLER_46_354 vssd1 vssd1 vccd1 vccd1 sky130_fd_sc_hd__decap_4
XANTENNA__0847__A0 _0530_/X vssd1 vssd1 vccd1 vccd1 sky130_fd_sc_hd__diode_2
X_0821_ _1104_/Q _0818_/X input86/X _0819_/X vssd1 vssd1 vccd1 vccd1 _1104_/D sky130_fd_sc_hd__a22o_1
X_0752_ _1057_/Q _0749_/X _0800_/B1 _0750_/X vssd1 vssd1 vccd1 vccd1 _1057_/D sky130_fd_sc_hd__a22o_1
X_0683_ _1014_/Q _0679_/X input92/X _0680_/X vssd1 vssd1 vccd1 vccd1 _1014_/D sky130_fd_sc_hd__a22o_1
XFILLER_37_332 vssd1 vssd1 vccd1 vccd1 sky130_fd_sc_hd__decap_4
XFILLER_37_321 vssd1 vssd1 vccd1 vccd1 sky130_fd_sc_hd__decap_4
XANTENNA__0963__S _0983_/S vssd1 vssd1 vccd1 vccd1 sky130_fd_sc_hd__diode_2
X_1097_ _1114_/CLK _1097_/D vssd1 vssd1 vccd1 vccd1 _1097_/Q sky130_fd_sc_hd__dfxtp_1